FoamFile
{
    version     2.0;
    format      ascii;
    class       dictionary;
    object      blockMeshDict;
}

// Exported by SnappyHexMesh GUI add-on for Blender v1.8
// Source file: /home/basta/Documents/bakalarka/bakalarka-openfoam/heat-sim-heaters/model.blend
// Export date: 2024-10-23 23:26:52.742017

scale 1;

vertices
(
    ( -20.1 -20.1 -5.1 )
    ( 20.1 -20.1 -5.1 )
    ( 20.1 20.1 -5.1 )
    ( -20.1 20.1 -5.1 )
    ( -20.1 -20.1 5.1 )
    ( 20.1 -20.1 5.1 ) 
    ( 20.1 20.1 5.1 ) 
    ( -20.1 20.1 5.1 ) 
);

blocks
(
    hex (0 1 2 3 4 5 6 7) (402 402 102) simpleGrading (1 1 1)
);

edges
(
);

boundary
(
    world
    {
        type patch;
        faces
        (
            (3 7 6 2)
            (0 4 7 3)
            (2 6 5 1)
            (1 5 4 0)
            (0 3 2 1)
            (4 5 6 7)
        );
    }
);
