/*---------------------------------------------------------------------------*\
| =========                 |                                                 |
| \      /  F ield         | OpenFOAM: The Open Source CFD Toolbox           |
|  \    /   O peration     | Version:  v1806/v10                             |
|   \  /    A nd           | Web:      https://www.OpenFOAM.com              |
|    \/     M anipulation  |           https://www.OpenFOAM.org              |
\*---------------------------------------------------------------------------*/
FoamFile
{
    version     2.0;
    format      ascii;
    class       dictionary;
    object      blockMeshDict;
}
// * * * * * * * * * * * * * * * * * * * * * * * * * * * * * * * * * * * * * //

scale 1;

vertices
(
	(0.00000000 0.00000000 0.00000000) // 0
	(0.00000000 0.00000000 1.40000000) // 1
	(0.77452782 -0.77452782 1.09534775) // 2
	(0.98994949 -0.98994949 0.00000000) // 3
	(5.00000000 5.00000000 0.00000000) // 4
	(5.00000000 5.00000000 1.40000000) // 5
	(5.77452782 4.22547218 1.09534775) // 6
	(5.98994949 4.01005051 0.00000000) // 7
	(0.00000000 -0.00000000 -1.40000000) // 8
	(0.77452782 -0.77452782 -1.09534775) // 9
	(5.00000000 5.00000000 -1.40000000) // 10
	(5.77452782 4.22547218 -1.09534775) // 11
	(-0.77452782 0.77452782 -1.09534775) // 12
	(-0.98994949 0.98994949 0.00000000) // 13
	(4.22547218 5.77452782 -1.09534775) // 14
	(4.01005051 5.98994949 0.00000000) // 15
	(-0.77452782 0.77452782 1.09534775) // 16
	(4.22547218 5.77452782 1.09534775) // 17
	(0.00000000 0.00000000 2.00000000) // 18
	(1.00000000 -1.00000000 1.41421356) // 19
	(5.00000000 5.00000000 2.00000000) // 20
	(6.00000000 4.00000000 1.41421356) // 21
	(1.41421356 -1.41421356 0.00000000) // 22
	(6.41421356 3.58578644 0.00000000) // 23
	(1.00000000 -1.00000000 -1.41421356) // 24
	(6.00000000 4.00000000 -1.41421356) // 25
	(0.00000000 -0.00000000 -2.00000000) // 26
	(5.00000000 5.00000000 -2.00000000) // 27
	(-1.00000000 1.00000000 -1.41421356) // 28
	(4.00000000 6.00000000 -1.41421356) // 29
	(-1.41421356 1.41421356 0.00000000) // 30
	(3.58578644 6.41421356 0.00000000) // 31
	(-1.00000000 1.00000000 1.41421356) // 32
	(4.00000000 6.00000000 1.41421356) // 33
);

blocks
(
	hex ( 0 1 2 3 4 5 6 7 )  ( 7 7 30 ) simpleGrading ( 1.0 1 1 ) // 0 
	hex ( 8 0 3 9 10 4 7 11 )  ( 7 7 30 ) simpleGrading ( 1.0 1 1 ) // 1 
	hex ( 12 13 0 8 14 15 4 10 )  ( 7 7 30 ) simpleGrading ( 1.0 1.0 1 ) // 2 
	hex ( 13 16 1 0 15 17 5 4 )  ( 7 7 30 ) simpleGrading ( 1.0 1.0 1 ) // 3 
	hex ( 1 18 19 2 5 20 21 6 )  ( 7 7 30 ) simpleGrading ( 0.25 1 1 ) // 4 
	hex ( 2 19 22 3 6 21 23 7 )  ( 7 7 30 ) simpleGrading ( 0.25 1 1 ) // 5 
	hex ( 3 22 24 9 7 23 25 11 )  ( 7 7 30 ) simpleGrading ( 0.25 1 1 ) // 6 
	hex ( 9 24 26 8 11 25 27 10 )  ( 7 7 30 ) simpleGrading ( 0.25 1.0 1 ) // 7 
	hex ( 8 26 28 12 10 27 29 14 )  ( 7 7 30 ) simpleGrading ( 0.25 1 1 ) // 8 
	hex ( 12 28 30 13 14 29 31 15 )  ( 7 7 30 ) simpleGrading ( 0.25 1.0 1 ) // 9 
	hex ( 13 30 32 16 15 31 33 17 )  ( 7 7 30 ) simpleGrading ( 0.25 1.0 1 ) // 10 
	hex ( 16 32 18 1 17 33 20 5 )  ( 7 7 30 ) simpleGrading ( 0.25 1.0 1 ) // 11 
);

edges
(
	spline 1 2 ((0.13892580 -0.13892580 1.38604375) (0.27528392 -0.27528392 1.33452725) (0.40426072 -0.40426072 1.26874300) (0.52117995 -0.52117995 1.20140300) (0.62128735 -0.62128735 1.14152500) (0.70104016 -0.70104016 1.09534775))
	spline 2 3 ((0.77452782 -0.77452782 0.99142050) (0.80718007 -0.80718007 0.87863300) (0.84952021 -0.84952021 0.73705975) (0.89713678 -0.89713678 0.57171100) (0.94365327 -0.94365327 0.38931025) (0.98008093 -0.98008093 0.19647075))
	spline 8 9 ((0.13892580 -0.13892580 -1.38604375) (0.27528392 -0.27528392 -1.33452725) (0.40426072 -0.40426072 -1.26874300) (0.52117995 -0.52117995 -1.20140300) (0.62128735 -0.62128735 -1.14152500) (0.70104016 -0.70104016 -1.09534775))
	spline 3 9 ((0.98008093 -0.98008093 -0.19647075) (0.94365327 -0.94365327 -0.38931025) (0.89713678 -0.89713678 -0.57171100) (0.84952021 -0.84952021 -0.73705975) (0.80718007 -0.80718007 -0.87863300) (0.77452782 -0.77452782 -0.99142050))
	spline 12 13 ((-0.77452782 0.77452782 -0.99142050) (-0.80718007 0.80718007 -0.87863300) (-0.84952021 0.84952021 -0.73705975) (-0.89713678 0.89713678 -0.57171100) (-0.94365327 0.94365327 -0.38931025) (-0.98008093 0.98008093 -0.19647075))
	spline 12 8 ((-0.70104016 0.70104016 -1.09534775) (-0.62128735 0.62128735 -1.14152500) (-0.52117995 0.52117995 -1.20140300) (-0.40426072 0.40426072 -1.26874300) (-0.27528392 0.27528392 -1.33452725) (-0.13892580 0.13892580 -1.38604375))
	spline 13 16 ((-0.98008093 0.98008093 0.19647075) (-0.94365327 0.94365327 0.38931025) (-0.89713678 0.89713678 0.57171100) (-0.84952021 0.84952021 0.73705975) (-0.80718007 0.80718007 0.87863300) (-0.77452782 0.77452782 0.99142050))
	spline 16 1 ((-0.70104016 0.70104016 1.09534775) (-0.62128735 0.62128735 1.14152500) (-0.52117995 0.52117995 1.20140300) (-0.40426072 0.40426072 1.26874300) (-0.27528392 0.27528392 1.33452725) (-0.13892580 0.13892580 1.38604375))
	// arc 18 19 origin 1 (0.00000000 0.00000000 0.00000000)
	arc 18 19 (0.54119610 -0.54119610 1.84775907)
	// arc 20 21 origin 1 (5.00000000 5.00000000 0.00000000)
	arc 20 21 (5.54119610 4.45880390 1.84775907)
	// arc 19 22 origin 1 (0.00000000 0.00000000 0.00000000)
	arc 19 22 (1.30656296 -1.30656296 0.76536686)
	// arc 21 23 origin 1 (5.00000000 5.00000000 0.00000000)
	arc 21 23 (6.30656296 3.69343704 0.76536686)
	// arc 22 24 origin 1 (0.00000000 0.00000000 0.00000000)
	arc 22 24 (1.30656296 -1.30656296 -0.76536686)
	// arc 23 25 origin 1 (5.00000000 5.00000000 0.00000000)
	arc 23 25 (6.30656296 3.69343704 -0.76536686)
	// arc 24 26 origin 1 (0.00000000 0.00000000 0.00000000)
	arc 24 26 (0.54119610 -0.54119610 -1.84775907)
	// arc 25 27 origin 1 (5.00000000 5.00000000 0.00000000)
	arc 25 27 (5.54119610 4.45880390 -1.84775907)
	// arc 26 28 origin 1 (0.00000000 0.00000000 0.00000000)
	arc 26 28 (-0.54119610 0.54119610 -1.84775907)
	// arc 27 29 origin 1 (5.00000000 5.00000000 0.00000000)
	arc 27 29 (4.45880390 5.54119610 -1.84775907)
	// arc 28 30 origin 1 (0.00000000 0.00000000 0.00000000)
	arc 28 30 (-1.30656296 1.30656296 -0.76536686)
	// arc 29 31 origin 1 (5.00000000 5.00000000 0.00000000)
	arc 29 31 (3.69343704 6.30656296 -0.76536686)
	// arc 30 32 origin 1 (0.00000000 0.00000000 0.00000000)
	arc 30 32 (-1.30656296 1.30656296 0.76536686)
	// arc 31 33 origin 1 (5.00000000 5.00000000 0.00000000)
	arc 31 33 (3.69343704 6.30656296 0.76536686)
	// arc 32 18 origin 1 (0.00000000 0.00000000 0.00000000)
	arc 32 18 (-0.54119610 0.54119610 1.84775907)
	// arc 33 20 origin 1 (5.00000000 5.00000000 0.00000000)
	arc 33 20 (4.45880390 5.54119610 1.84775907)
);

faces
(
);

boundary
(
	inlet
	{
		type patch;
		faces
		(
			(0 1 2 3)
			(8 0 3 9)
			(12 13 0 8)
			(13 16 1 0)
			(1 18 19 2)
			(2 19 22 3)
			(3 22 24 9)
			(9 24 26 8)
			(8 26 28 12)
			(12 28 30 13)
			(13 30 32 16)
			(16 32 18 1)
		);
	}
	outlet
	{
		type patch;
		faces
		(
			(4 5 6 7)
			(10 4 7 11)
			(14 15 4 10)
			(15 17 5 4)
			(5 20 21 6)
			(6 21 23 7)
			(7 23 25 11)
			(11 25 27 10)
			(10 27 29 14)
			(14 29 31 15)
			(15 31 33 17)
			(17 33 20 5)
		);
	}
	walls
	{
		type patch;
		faces
		(
			(20 18 19 21)
			(21 19 22 23)
			(23 22 24 25)
			(25 24 26 27)
			(27 26 28 29)
			(29 28 30 31)
			(31 30 32 33)
			(33 32 18 20)
		);
	}
);

mergePatchPairs
(
);

// * * * * * * * * * * * * * * * * * * * * * * * * * * * * * * * * * * * * * //
// Created with classy_blocks: https://github.com/damogranlabs/classy_blocks //
// * * * * * * * * * * * * * * * * * * * * * * * * * * * * * * * * * * * * * //
