/*---------------------------------------------------------------------------*\
| =========                 |                                                 |
| \      /  F ield         | OpenFOAM: The Open Source CFD Toolbox           |
|  \    /   O peration     | Version:  v1806/v10                             |
|   \  /    A nd           | Web:      https://www.OpenFOAM.com              |
|    \/     M anipulation  |           https://www.OpenFOAM.org              |
\*---------------------------------------------------------------------------*/
FoamFile
{
    version     2.0;
    format      ascii;
    class       dictionary;
    object      blockMeshDict;
}
// * * * * * * * * * * * * * * * * * * * * * * * * * * * * * * * * * * * * * //

scale 1;

vertices
(
	(-0.56568542 0.56568542 0.00000000) // 0
	(-0.70700000 0.70700000 0.00000000) // 1
	(-0.49992449 0.49992449 0.70700000) // 2
	(-0.40000000 0.40000000 0.56568542) // 3
	(1.43431458 2.56568542 0.00000000) // 4
	(1.29300000 2.70700000 0.00000000) // 5
	(1.50007551 2.49992449 0.70700000) // 6
	(1.60000000 2.40000000 0.56568542) // 7
	(-0.00000000 0.00000000 0.99984899) // 8
	(-0.00000000 0.00000000 0.80000000) // 9
	(2.00000000 2.00000000 0.99984899) // 10
	(2.00000000 2.00000000 0.80000000) // 11
	(0.49992449 -0.49992449 0.70700000) // 12
	(0.40000000 -0.40000000 0.56568542) // 13
	(2.49992449 1.50007551 0.70700000) // 14
	(2.40000000 1.60000000 0.56568542) // 15
	(0.70700000 -0.70700000 0.00000000) // 16
	(0.56568542 -0.56568542 0.00000000) // 17
	(2.70700000 1.29300000 0.00000000) // 18
	(2.56568542 1.43431458 0.00000000) // 19
	(0.49992449 -0.49992449 -0.70700000) // 20
	(0.40000000 -0.40000000 -0.56568542) // 21
	(2.49992449 1.50007551 -0.70700000) // 22
	(2.40000000 1.60000000 -0.56568542) // 23
	(-0.00000000 -0.00000000 -0.99984899) // 24
	(-0.00000000 -0.00000000 -0.80000000) // 25
	(2.00000000 2.00000000 -0.99984899) // 26
	(2.00000000 2.00000000 -0.80000000) // 27
	(-0.49992449 0.49992449 -0.70700000) // 28
	(-0.40000000 0.40000000 -0.56568542) // 29
	(1.50007551 2.49992449 -0.70700000) // 30
	(1.60000000 2.40000000 -0.56568542) // 31
);

blocks
(
	hex ( 0 1 2 3 4 5 6 7 )  ( 18 8 29 ) simpleGrading ( ((0.5 9 4.2998169599999985)(0.5 9 0.23256803936137793)) 1 1 ) // 0 
	hex ( 3 2 8 9 7 6 10 11 )  ( 18 8 29 ) simpleGrading ( ((0.5 9 4.2998169599999985)(0.5 9 0.23256803936137793)) 1 1 ) // 1 
	hex ( 9 8 12 13 11 10 14 15 )  ( 18 8 29 ) simpleGrading ( ((0.5 9 4.2998169599999985)(0.5 9 0.23256803936137793)) 1 1 ) // 2 
	hex ( 13 12 16 17 15 14 18 19 )  ( 18 8 29 ) simpleGrading ( ((0.5 9 4.2998169599999985)(0.5 9 0.23256803936137793)) 1 1 ) // 3 
	hex ( 17 16 20 21 19 18 22 23 )  ( 18 8 29 ) simpleGrading ( ((0.5 9 4.2998169599999985)(0.5 9 0.23256803936137793)) 1 1 ) // 4 
	hex ( 21 20 24 25 23 22 26 27 )  ( 18 8 29 ) simpleGrading ( ((0.5 9 4.2998169599999985)(0.5 9 0.23256803936137793)) 1 1 ) // 5 
	hex ( 25 24 28 29 27 26 30 31 )  ( 18 8 29 ) simpleGrading ( ((0.5 9 4.2998169599999985)(0.5 9 0.23256803936137793)) 1 1 ) // 6 
	hex ( 29 28 1 0 31 30 5 4 )  ( 18 8 29 ) simpleGrading ( ((0.5 9 4.2998169599999985)(0.5 9 0.23256803936137793)) 1 1 ) // 7 
);

edges
(
	// arc 0 3 origin 1 (0.00000000 0.00000000 0.00000000)
	arc 0 3 (-0.52262519 0.52262519 0.30614675)
	// arc 1 2 origin 1 (0.00000000 0.00000000 0.00000000)
	arc 1 2 (-0.65318283 0.65318283 0.38262564)
	// arc 4 7 origin 1 (2.00000000 2.00000000 0.00000000)
	arc 4 7 (1.47737481 2.52262519 0.30614675)
	// arc 5 6 origin 1 (2.00000000 2.00000000 0.00000000)
	arc 5 6 (1.34681717 2.65318283 0.38262564)
	// arc 3 9 origin 1 (0.00000000 0.00000000 0.00000000)
	arc 3 9 (-0.21647844 0.21647844 0.73910363)
	// arc 2 8 origin 1 (0.00000000 0.00000000 0.00000000)
	arc 2 8 (-0.27055719 0.27055719 0.92374002)
	// arc 7 11 origin 1 (2.00000000 2.00000000 0.00000000)
	arc 7 11 (1.78352156 2.21647844 0.73910363)
	// arc 6 10 origin 1 (2.00000000 2.00000000 0.00000000)
	arc 6 10 (1.72944281 2.27055719 0.92374002)
	// arc 9 13 origin 1 (0.00000000 0.00000000 0.00000000)
	arc 9 13 (0.21647844 -0.21647844 0.73910363)
	// arc 8 12 origin 1 (0.00000000 0.00000000 0.00000000)
	arc 8 12 (0.27055719 -0.27055719 0.92374002)
	// arc 11 15 origin 1 (2.00000000 2.00000000 0.00000000)
	arc 11 15 (2.21647844 1.78352156 0.73910363)
	// arc 10 14 origin 1 (2.00000000 2.00000000 0.00000000)
	arc 10 14 (2.27055719 1.72944281 0.92374002)
	// arc 13 17 origin 1 (0.00000000 0.00000000 0.00000000)
	arc 13 17 (0.52262519 -0.52262519 0.30614675)
	// arc 12 16 origin 1 (0.00000000 0.00000000 0.00000000)
	arc 12 16 (0.65318283 -0.65318283 0.38262564)
	// arc 15 19 origin 1 (2.00000000 2.00000000 0.00000000)
	arc 15 19 (2.52262519 1.47737481 0.30614675)
	// arc 14 18 origin 1 (2.00000000 2.00000000 0.00000000)
	arc 14 18 (2.65318283 1.34681717 0.38262564)
	// arc 17 21 origin 1 (0.00000000 0.00000000 0.00000000)
	arc 17 21 (0.52262519 -0.52262519 -0.30614675)
	// arc 16 20 origin 1 (0.00000000 0.00000000 0.00000000)
	arc 16 20 (0.65318283 -0.65318283 -0.38262564)
	// arc 19 23 origin 1 (2.00000000 2.00000000 0.00000000)
	arc 19 23 (2.52262519 1.47737481 -0.30614675)
	// arc 18 22 origin 1 (2.00000000 2.00000000 0.00000000)
	arc 18 22 (2.65318283 1.34681717 -0.38262564)
	// arc 21 25 origin 1 (0.00000000 0.00000000 0.00000000)
	arc 21 25 (0.21647844 -0.21647844 -0.73910363)
	// arc 20 24 origin 1 (0.00000000 0.00000000 0.00000000)
	arc 20 24 (0.27055719 -0.27055719 -0.92374002)
	// arc 23 27 origin 1 (2.00000000 2.00000000 0.00000000)
	arc 23 27 (2.21647844 1.78352156 -0.73910363)
	// arc 22 26 origin 1 (2.00000000 2.00000000 0.00000000)
	arc 22 26 (2.27055719 1.72944281 -0.92374002)
	// arc 25 29 origin 1 (0.00000000 0.00000000 0.00000000)
	arc 25 29 (-0.21647844 0.21647844 -0.73910363)
	// arc 24 28 origin 1 (0.00000000 0.00000000 0.00000000)
	arc 24 28 (-0.27055719 0.27055719 -0.92374002)
	// arc 27 31 origin 1 (2.00000000 2.00000000 0.00000000)
	arc 27 31 (1.78352156 2.21647844 -0.73910363)
	// arc 26 30 origin 1 (2.00000000 2.00000000 0.00000000)
	arc 26 30 (1.72944281 2.27055719 -0.92374002)
	// arc 29 0 origin 1 (0.00000000 0.00000000 0.00000000)
	arc 29 0 (-0.52262519 0.52262519 -0.30614675)
	// arc 28 1 origin 1 (0.00000000 0.00000000 0.00000000)
	arc 28 1 (-0.65318283 0.65318283 -0.38262564)
	// arc 31 4 origin 1 (2.00000000 2.00000000 0.00000000)
	arc 31 4 (1.47737481 2.52262519 -0.30614675)
	// arc 30 5 origin 1 (2.00000000 2.00000000 0.00000000)
	arc 30 5 (1.34681717 2.65318283 -0.38262564)
);

faces
(
);

boundary
(
	inlet
	{
		type patch;
		faces
		(
			(0 1 2 3)
			(3 2 8 9)
			(9 8 12 13)
			(13 12 16 17)
			(17 16 20 21)
			(21 20 24 25)
			(25 24 28 29)
			(29 28 1 0)
		);
	}
	outlet
	{
		type patch;
		faces
		(
			(4 5 6 7)
			(7 6 10 11)
			(11 10 14 15)
			(15 14 18 19)
			(19 18 22 23)
			(23 22 26 27)
			(27 26 30 31)
			(31 30 5 4)
		);
	}
	outer_wall
	{
		type patch;
		faces
		(
			(5 1 2 6)
			(6 2 8 10)
			(10 8 12 14)
			(14 12 16 18)
			(18 16 20 22)
			(22 20 24 26)
			(26 24 28 30)
			(30 28 1 5)
		);
	}
	inner_wall
	{
		type patch;
		faces
		(
			(4 0 3 7)
			(7 3 9 11)
			(11 9 13 15)
			(15 13 17 19)
			(19 17 21 23)
			(23 21 25 27)
			(27 25 29 31)
			(31 29 0 4)
		);
	}
);

mergePatchPairs
(
);

// * * * * * * * * * * * * * * * * * * * * * * * * * * * * * * * * * * * * * //
// Created with classy_blocks: https://github.com/damogranlabs/classy_blocks //
// * * * * * * * * * * * * * * * * * * * * * * * * * * * * * * * * * * * * * //
