/*--------------------------------*- C++ -*----------------------------------*\
| =========                 |                                                 |
| \\      /  F ield         | OpenFOAM: The Open Source CFD Toolbox           |
|  \\    /   O peration     | Version:  v2406                                 |
|   \\  /    A nd           | Website:  www.openfoam.com                      |
|    \\/     M anipulation  |                                                 |
\*---------------------------------------------------------------------------*/
FoamFile
{
    version     2.0;
    format      ascii;
    class       dictionary;
    object      fvSolution;
}
// * * * * * * * * * * * * * * * * * * * * * * * * * * * * * * * * * * * * * //

solvers
{
    p_rgh
    {
        solver          PCG;
        preconditioner  DIC;
        tolerance       1e-06;
        relTol          0.05;
        pRefCell        0;
        pRefValue       0;
    }

    U
    {
        solver          PBiCGStab;
        preconditioner  DILU;
        tolerance       1e-08;
        relTol          0;
    }
    
    UFinal {
        $U;
        relTol          0;
    }

    T 
    {
        solver          PBiCGStab;
        preconditioner  DILU;
        smoother        symGaussSeidel;
        tolerance       1e-06;
        relTol          0.05;
    }

    TFinal { //TODO ?
        $T;
        relTol          0;
    }



    p_rghFinal {
       solver          PBiCGStab;
       preconditioner  DIC;
       tolerance       1e-06;
       relTol          0;
   }
}

PISO
{
    nCorrectors     2;
    nNonOrthogonalCorrectors 0;
    pRefCell        0;
    pRefValue       0;
}

PIMPLE
{
  pRefCell       100;
  pRefValue      0;
}


// ************************************************************************* //
