/*--------------------------------*- C++ -*----------------------------------*\
| =========                 |                                                 |
| \\      /  F ield         | OpenFOAM: The Open Source CFD Toolbox           |
|  \\    /   O peration     | Version:  2406                                  |
|   \\  /    A nd           | Website:  www.openfoam.com                      |
|    \\/     M anipulation  |                                                 |
\*---------------------------------------------------------------------------*/
FoamFile
{
    version     2.0;
    format      ascii;
    arch        "LSB;label=32;scalar=64";
    class       featureEdgeMesh;
    location    "constant/triSurface";
    object      Pad_Geometry.eMesh;
}
// * * * * * * * * * * * * * * * * * * * * * * * * * * * * * * * * * * * * * //


// points:

24
(
(0.017750907689333 0.100000001490116 0)
(0.017750907689333 0.0649999976158142 0)
(0.017750907689333 0.100000001490116 0.00999999977648258)
(0.017750907689333 0.0649999976158142 0.00999999977648258)
(0.177750915288925 0.100000001490116 0)
(0.177750915288925 0.100000001490116 0.00999999977648258)
(0.177750915288925 0.0649999976158142 0)
(0.177750915288925 0.0649999976158142 0.00999999977648258)
(0.177750915288925 0 0)
(0.177750915288925 0.0350000001490116 0)
(0.177750915288925 0 0.00999999977648258)
(0.177750915288925 0.0350000001490116 0.00999999977648258)
(0.017750907689333 0 0)
(0.017750907689333 0 0.00999999977648258)
(0.017750907689333 0.0350000001490116 0)
(0.017750907689333 0.0350000001490116 0.00999999977648258)
(0.0477509088814259 0.0350000001490116 0)
(0.0477509088814259 0.0649999976158142 0)
(0.147750914096832 0.0350000001490116 0)
(0.147750914096832 0.0649999976158142 0)
(0.0477509088814259 0.0350000001490116 0.00999999977648258)
(0.0477509088814259 0.0649999976158142 0.00999999977648258)
(0.147750914096832 0.0350000001490116 0.00999999977648258)
(0.147750914096832 0.0649999976158142 0.00999999977648258)
)


// edges:

36
(
(0 1)
(3 2)
(1 3)
(4 0)
(2 5)
(6 4)
(5 7)
(7 6)
(8 9)
(11 10)
(9 11)
(12 8)
(10 13)
(14 12)
(15 14)
(13 15)
(14 16)
(17 1)
(16 17)
(19 18)
(18 9)
(6 19)
(20 15)
(3 21)
(21 20)
(22 23)
(11 22)
(23 7)
(2 0)
(5 4)
(10 8)
(13 12)
(23 19)
(22 18)
(20 16)
(21 17)
)

// * * * * * * * * * * * * * * * * * * * * * * * * * * * * * * * * * * * * * //


// ************************************************************************* //
