/*--------------------------------*- C++ -*----------------------------------*\
| =========                 |                                                 |
| \\      /  F ield         | OpenFOAM: The Open Source CFD Toolbox           |
|  \\    /   O peration     | Version:  v2406                                 |
|   \\  /    A nd           | Website:  www.openfoam.com                      |
|    \\/     M anipulation  |                                                 |
\*---------------------------------------------------------------------------*/
FoamFile
{
    version     2.0;
    format      ascii;
    class       dictionary;
    object      turbulenceProperties;
}
// * * * * * * * * * * * * * * * * * * * * * * * * * * * * * * * * * * * * * //

simulationType laminar;

RAS
{
    RASModel        kEpsilon;
    turbulence      off;
    printCoeffs     on;

    // Volitelné koeficienty pro model kEpsilon
    kEpsilonCoeffs
    {
        Cmu             0.09;
        C1              1.44;
        C2              1.92;
        sigmaEpsilon    1.3;
    }
}
