FoamFile
{
    version     2.0;
    format      ascii;
    class       dictionary;
    object      decomposeParDict;
}

// Exported by SnappyHexMesh GUI add-on for Blender v1.8
// Source file: /home/basta/Documents/bakalarka/bakalarka-openfoam/jsem-blazen/model.blend
// Export date: 2024-10-30 23:03:13.263310

numberOfSubdomains 1;

method          scotch;
// method          simple;

simpleCoeffs
{
    n               (1 1 1);
    delta           0.001;
}

hierarchicalCoeffs
{
    n               (1 1 1);
    delta           0.001;
    order           xyz;
}

manualCoeffs
{
    dataFile        "cellDecomposition";
}
