/*--------------------------------*- C++ -*----------------------------------*\
| =========                 |                                                 |
| \\      /  F ield         | OpenFOAM: The Open Source CFD Toolbox           |
|  \\    /   O peration     | Version:  2406                                  |
|   \\  /    A nd           | Website:  www.openfoam.com                      |
|    \\/     M anipulation  |                                                 |
\*---------------------------------------------------------------------------*/
FoamFile
{
    version     2.0;
    format      ascii;
    arch        "LSB;label=32;scalar=64";
    class       extendedFeatureEdgeMesh;
    location    "constant/extendedFeatureEdgeMesh";
    object      Cut003_Geometry.extendedFeatureEdgeMesh;
}
// * * * * * * * * * * * * * * * * * * * * * * * * * * * * * * * * * * * * * //

// points

230
(
(0.0624499805271626 0.189999997615814 0.0399999991059303)
(0.0624499805271626 0.189999997615814 0)
(-0.0735118985176086 -0.186000004410744 0)
(-0.0624499805271626 0.189999997615814 0)
(-0.0735118985176086 -0.186000004410744 0.0399999991059303)
(-0.0624499805271626 0.189999997615814 0.0399999991059303)
(0.100000001490116 -0.0199999995529652 0.00999999977648258)
(0.0599999986588955 -0.0199999995529652 0.00999999977648258)
(0.100000001490116 0.0199999995529652 0.00999999977648258)
(0.0599999986588955 0.0199999995529652 0.00999999977648258)
(-0.0599999986588955 -0.0199999995529652 0.00999999977648258)
(-0.100000001490116 -0.0199999995529652 0.00999999977648258)
(-0.0599999986588955 0.0199999995529652 0.00999999977648258)
(-0.100000001490116 0.0199999995529652 0.00999999977648258)
(0.0735118985176086 -0.186000004410744 0)
(0.0735118985176086 -0.186000004410744 0.0399999991059303)
(0.200000002980232 -4.89999990395467e-17 0.0399999991059303)
(0.200000002980232 -4.89999990395467e-17 0)
(-0.100000001490116 -0.0199999995529652 0.0399999991059303)
(-0.0599999986588955 -0.0199999995529652 0.0399999991059303)
(-0.100000001490116 0.0199999995529652 0.0399999991059303)
(-0.0599999986588955 0.0199999995529652 0.0399999991059303)
(0.0599999986588955 -0.0199999995529652 0.0399999991059303)
(0.100000001490116 -0.0199999995529652 0.0399999991059303)
(0.0599999986588955 0.0199999995529652 0.0399999991059303)
(0.100000001490116 0.0199999995529652 0.0399999991059303)
(0.0813769400119781 -0.182695910334587 0)
(0.0813769400119781 -0.182695910334587 0.0399999991059303)
(0.089093916118145 -0.179059416055679 0.0399999991059303)
(0.089093916118145 -0.179059416055679 0)
(0.0966487973928452 -0.175097152590752 0.0399999991059303)
(0.0966487973928452 -0.175097152590752 0)
(0.104027830064297 -0.1708163022995 0.0399999991059303)
(0.104027830064297 -0.1708163022995 0)
(0.111217603087425 -0.16622468829155 0.0399999991059303)
(0.111217603087425 -0.16622468829155 0)
(0.118205025792122 -0.161330625414848 0.0399999991059303)
(0.118205025792122 -0.161330625414848 0)
(0.124977387487888 -0.156143054366112 0.0399999991059303)
(0.124977387487888 -0.156143054366112 0)
(0.131522372364998 -0.150671392679214 0.0399999991059303)
(0.131522372364998 -0.150671392679214 0)
(0.137828052043915 -0.144925594329834 0.0399999991059303)
(0.137828052043915 -0.144925594329834 0)
(0.1438829600811 -0.138916119933128 0)
(0.1438829600811 -0.138916119933128 0.0399999991059303)
(0.149676114320755 -0.132653921842575 0)
(0.149676114320755 -0.132653921842575 0.0399999991059303)
(0.155196934938431 -0.126150354743004 0)
(0.155196934938431 -0.126150354743004 0.0399999991059303)
(0.160435393452644 -0.119417272508144 0)
(0.160435393452644 -0.119417272508144 0.0399999991059303)
(0.165381953120232 -0.112466923892498 0)
(0.165381953120232 -0.112466923892498 0.0399999991059303)
(0.170027613639832 -0.105311959981918 0)
(0.170027613639832 -0.105311959981918 0.0399999991059303)
(0.174363940954208 -0.097965382039547 0.0399999991059303)
(0.174363940954208 -0.097965382039547 0)
(0.178383022546768 -0.090440571308136 0)
(0.178383022546768 -0.090440571308136 0.0399999991059303)
(0.182077556848526 -0.0827512145042419 0.0399999991059303)
(0.182077556848526 -0.0827512145042419 0)
(0.185440808534622 -0.0749113038182259 0)
(0.185440808534622 -0.0749113038182259 0.0399999991059303)
(0.188466683030128 -0.0669350922107697 0.0399999991059303)
(0.188466683030128 -0.0669350922107697 0)
(0.191149666905403 -0.058837104588747 0)
(0.191149666905403 -0.058837104588747 0.0399999991059303)
(0.193484857678413 -0.0506320632994175 0.0399999991059303)
(0.193484857678413 -0.0506320632994175 0)
(0.195468053221703 -0.0423349067568779 0)
(0.195468053221703 -0.0423349067568779 0.0399999991059303)
(0.197095587849617 -0.0339607261121273 0.0399999991059303)
(0.197095587849617 -0.0339607261121273 0)
(0.198364526033401 -0.0255247578024864 0.0399999991059303)
(0.199272572994232 -0.0170423481613398 0.0399999991059303)
(0.198364526033401 -0.0255247578024864 0)
(0.199272572994232 -0.0170423481613398 0)
(0.199818059802055 -0.00852893386036158 0.0399999991059303)
(0.199818059802055 -0.00852893386036158 0)
(0.0962554290890694 -0.175313696265221 0)
(0.0850516706705093 -0.181014403700829 0)
(0.117479413747787 -0.161859765648842 0)
(0.107078939676285 -0.168920397758484 0)
(0.1368488073349 -0.145850628614426 0)
(0.127415791153908 -0.154159709811211 0)
(0.145741179585457 -0.136965364217758 0)
(0.161765798926353 -0.117608785629272 0)
(0.154057785868645 -0.12753900885582 0)
(0.180946335196495 -0.0851963683962822 0)
(0.17523667216301 -0.0963955670595169 0)
(0.16883473098278 -0.107213959097862 0)
(0.185941159725189 -0.0736605897545815 0)
(0.193710267543793 -0.0497627556324005 0)
(0.190201416611671 -0.0618338137865067 0)
(0.198421344161034 -0.0250793378800154 0)
(0.196453854441643 -0.0374951101839542 0)
(0.199604943394661 -0.0125644877552986 0)
(0.0850516706705093 -0.181014403700829 0.0399999991059303)
(0.0962554290890694 -0.175313696265221 0.0399999991059303)
(0.107078939676285 -0.168920397758484 0.0399999991059303)
(0.117479413747787 -0.161859765648842 0.0399999991059303)
(0.127415791153908 -0.154159709811211 0.0399999991059303)
(0.1368488073349 -0.145850628614426 0.0399999991059303)
(0.145741179585457 -0.136965364217758 0.0399999991059303)
(0.154057785868645 -0.12753900885582 0.0399999991059303)
(0.161765798926353 -0.117608785629272 0.0399999991059303)
(0.16883473098278 -0.107213959097862 0.0399999991059303)
(0.17523667216301 -0.0963955670595169 0.0399999991059303)
(0.180946335196495 -0.0851963683962822 0.0399999991059303)
(0.185941159725189 -0.0736605897545815 0.0399999991059303)
(0.190201416611671 -0.0618338137865067 0.0399999991059303)
(0.193710267543793 -0.0497627556324005 0.0399999991059303)
(0.196453854441643 -0.0374951101839542 0.0399999991059303)
(0.198421344161034 -0.0250793378800154 0.0399999991059303)
(0.199604943394661 -0.0125644877552986 0.0399999991059303)
(0.199607476592064 0.0125241596251726 0)
(0.199607476592064 0.0125241596251726 0.0399999991059303)
(0.198431462049484 0.0249991584569216 0.0399999991059303)
(0.198431462049484 0.0249991584569216 0)
(0.196476548910141 0.0373760312795639 0.0399999991059303)
(0.196476548910141 0.0373760312795639 0)
(0.19375042617321 0.0496061928570271 0.0399999991059303)
(0.19375042617321 0.0496061928570271 0)
(0.190263777971268 0.0616416409611702 0.0399999991059303)
(0.190263777971268 0.0616416409611702 0)
(0.186030313372612 0.0734351351857185 0.0399999991059303)
(0.181066647171974 0.0849403738975525 0.0399999991059303)
(0.186030313372612 0.0734351351857185 0)
(0.181066647171974 0.0849403738975525 0)
(0.175392255187035 0.0961122065782547 0.0399999991059303)
(0.175392255187035 0.0961122065782547 0)
(0.169029399752617 0.106906786561012 0.0399999991059303)
(0.169029399752617 0.106906786561012 0)
(0.162003085017204 0.117281720042229 0.0399999991059303)
(0.162003085017204 0.117281720042229 0)
(0.154340848326683 0.127196297049522 0.0399999991059303)
(0.154340848326683 0.127196297049522 0)
(0.146072819828987 0.136611610651016 0.0399999991059303)
(0.146072819828987 0.136611610651016 0)
(0.137231394648552 0.145490691065788 0.0399999991059303)
(0.127851322293282 0.153798684477806 0.0399999991059303)
(0.137231394648552 0.145490691065788 0)
(0.127851322293282 0.153798684477806 0)
(0.117969408631325 0.161503002047539 0)
(0.117969408631325 0.161503002047539 0.0399999991059303)
(0.107624433934689 0.16857336461544 0)
(0.107624433934689 0.16857336461544 0.0399999991059303)
(0.0968570113182068 0.17498205602169 0)
(0.0968570113182068 0.17498205602169 0.0399999991059303)
(0.0857094004750252 0.180703908205032 0)
(0.0857094004750252 0.180703908205032 0.0399999991059303)
(0.0742253661155701 0.185716435313225 0)
(0.0742253661155701 0.185716435313225 0.0399999991059303)
(-0.136758103966713 -0.14593568444252 0)
(-0.145641803741455 -0.137071028351784 0)
(-0.127335906028748 -0.154225692152977 0)
(-0.117412321269512 -0.161908447742462 0)
(-0.107026427984238 -0.16895367205143 0)
(-0.168723553419113 -0.107388831675053 0)
(-0.175126701593399 -0.0965952277183533 0)
(-0.161656051874161 -0.117759585380554 0)
(-0.153952032327652 -0.127666652202606 0)
(-0.0962191075086594 -0.175333634018898 0)
(-0.180840268731117 -0.0854212716221809 0)
(-0.185841783881187 -0.0739109739661217 0)
(-0.193632692098618 -0.0500637516379356 0)
(-0.196391418576241 -0.0378207303583622 0)
(-0.19011153280735 -0.0621096417307854 0)
(-0.19837686419487 -0.0254287905991077 0)
(-0.199581161141396 -0.0129367234185338 0)
(-0.199999615550041 -0.000393716880353168 0)
(-0.198475435376167 0.0246475525200367 0)
(-0.196538805961609 0.0370472148060799 0)
(-0.199630558490753 0.0121508408337831 0)
(-0.19382831454277 0.0493010021746159 0)
(-0.190354585647583 0.0613606609404087 0)
(-0.186131343245506 0.0731787085533142 0)
(-0.0850329101085663 -0.181023210287094 0)
(-0.18117518723011 0.0847086161375046 0)
(-0.175505667924881 0.0959049761295319 0)
(-0.146180346608162 0.136496558785439 0)
(-0.137331619858742 0.14539609849453 0)
(-0.154453471302986 0.127059534192085 0)
(-0.127942129969597 0.153723165392876 0)
(-0.118048876523972 0.161444917321205 0)
(-0.162118434906006 0.117122210562229 0)
(-0.169145047664642 0.106723710894585 0)
(-0.0969086736440659 0.174953445792198 0)
(-0.0857449695467949 0.1806870251894 0)
(-0.107690796256065 0.168530985713005 0)
(-0.0742436423897743 0.18570913374424 0)
(-0.199999615550041 -0.000393716880353168 0.0399999991059303)
(-0.199581161141396 -0.0129367234185338 0.0399999991059303)
(-0.19837686419487 -0.0254287905991077 0.0399999991059303)
(-0.196391418576241 -0.0378207303583622 0.0399999991059303)
(-0.193632692098618 -0.0500637516379356 0.0399999991059303)
(-0.19011153280735 -0.0621096417307854 0.0399999991059303)
(-0.185841783881187 -0.0739109739661217 0.0399999991059303)
(-0.180840268731117 -0.0854212716221809 0.0399999991059303)
(-0.175126701593399 -0.0965952277183533 0.0399999991059303)
(-0.168723553419113 -0.107388831675053 0.0399999991059303)
(-0.161656051874161 -0.117759585380554 0.0399999991059303)
(-0.153952032327652 -0.127666652202606 0.0399999991059303)
(-0.145641803741455 -0.137071028351784 0.0399999991059303)
(-0.136758103966713 -0.14593568444252 0.0399999991059303)
(-0.127335906028748 -0.154225692152977 0.0399999991059303)
(-0.117412321269512 -0.161908447742462 0.0399999991059303)
(-0.107026427984238 -0.16895367205143 0.0399999991059303)
(-0.0962191075086594 -0.175333634018898 0.0399999991059303)
(-0.0850329101085663 -0.181023210287094 0.0399999991059303)
(-0.18117518723011 0.0847086161375046 0.0399999991059303)
(-0.186131343245506 0.0731787085533142 0.0399999991059303)
(-0.190354585647583 0.0613606609404087 0.0399999991059303)
(-0.19382831454277 0.0493010021746159 0.0399999991059303)
(-0.196538805961609 0.0370472148060799 0.0399999991059303)
(-0.198475435376167 0.0246475525200367 0.0399999991059303)
(-0.199630558490753 0.0121508408337831 0.0399999991059303)
(-0.175505667924881 0.0959049761295319 0.0399999991059303)
(-0.169145047664642 0.106723710894585 0.0399999991059303)
(-0.162118434906006 0.117122210562229 0.0399999991059303)
(-0.154453471302986 0.127059534192085 0.0399999991059303)
(-0.146180346608162 0.136496558785439 0.0399999991059303)
(-0.137331619858742 0.14539609849453 0.0399999991059303)
(-0.127942129969597 0.153723165392876 0.0399999991059303)
(-0.118048876523972 0.161444917321205 0.0399999991059303)
(-0.107690796256065 0.168530985713005 0.0399999991059303)
(-0.0969086736440659 0.174953445792198 0.0399999991059303)
(-0.0857449695467949 0.1806870251894 0.0399999991059303)
(-0.0742436423897743 0.18570913374424 0.0399999991059303)
)

// edges

245
(
(15 14)
(17 16)
(1 0)
(14 2)
(3 1)
(19 18)
(4 15)
(18 20)
(20 21)
(23 22)
(21 19)
(22 24)
(25 23)
(0 5)
(24 25)
(5 3)
(2 4)
(17 116)
(117 16)
(118 117)
(116 119)
(120 118)
(119 121)
(122 120)
(121 123)
(124 122)
(123 125)
(126 124)
(127 126)
(125 128)
(128 129)
(130 127)
(129 131)
(132 130)
(131 133)
(134 132)
(133 135)
(136 134)
(135 137)
(138 136)
(137 139)
(140 138)
(141 140)
(139 142)
(142 143)
(143 144)
(145 141)
(144 146)
(147 145)
(146 148)
(149 147)
(148 150)
(151 149)
(150 152)
(153 151)
(0 153)
(152 1)
(154 155)
(156 154)
(157 156)
(158 157)
(159 160)
(161 159)
(162 161)
(155 162)
(163 158)
(164 165)
(160 164)
(166 167)
(168 166)
(165 168)
(167 169)
(170 171)
(169 170)
(172 173)
(174 172)
(171 174)
(175 176)
(173 175)
(176 177)
(2 178)
(179 180)
(177 179)
(181 182)
(183 181)
(184 185)
(182 184)
(186 183)
(187 186)
(180 187)
(178 163)
(188 189)
(190 188)
(185 190)
(191 3)
(189 191)
(192 193)
(193 194)
(194 195)
(195 196)
(196 197)
(197 198)
(198 199)
(199 200)
(200 201)
(201 202)
(202 203)
(203 204)
(204 205)
(205 206)
(206 207)
(207 208)
(208 209)
(209 210)
(210 4)
(211 212)
(212 213)
(213 214)
(214 215)
(215 216)
(216 217)
(217 192)
(218 211)
(219 218)
(220 219)
(221 220)
(222 221)
(223 222)
(224 223)
(225 224)
(226 225)
(227 226)
(228 227)
(229 228)
(5 229)
(23 6)
(6 7)
(7 22)
(8 6)
(25 8)
(7 9)
(9 24)
(9 8)
(19 10)
(10 11)
(11 18)
(12 10)
(21 12)
(11 13)
(13 20)
(13 12)
(14 26)
(27 15)
(28 27)
(26 29)
(30 28)
(29 31)
(32 30)
(31 33)
(34 32)
(33 35)
(36 34)
(35 37)
(38 36)
(37 39)
(40 38)
(39 41)
(42 40)
(41 43)
(43 44)
(45 42)
(44 46)
(47 45)
(46 48)
(49 47)
(48 50)
(51 49)
(50 52)
(53 51)
(52 54)
(55 53)
(56 55)
(54 57)
(57 58)
(59 56)
(60 59)
(58 61)
(61 62)
(63 60)
(64 63)
(62 65)
(65 66)
(67 64)
(68 67)
(66 69)
(69 70)
(71 68)
(72 71)
(70 73)
(74 72)
(75 74)
(73 76)
(76 77)
(78 75)
(16 78)
(77 79)
(79 17)
(80 81)
(81 14)
(82 83)
(83 80)
(84 85)
(85 82)
(86 84)
(87 88)
(88 86)
(89 90)
(90 91)
(92 89)
(93 94)
(94 92)
(95 96)
(96 93)
(97 95)
(91 87)
(17 97)
(15 98)
(98 99)
(99 100)
(100 101)
(101 102)
(102 103)
(103 104)
(104 105)
(105 106)
(106 107)
(107 108)
(108 109)
(109 110)
(110 111)
(111 112)
(112 113)
(113 114)
(114 115)
(115 16)
)

// concaveStart mixedStart nonFeatureStart
6 14 26
// internalStart flatStart openStart multipleStart
135 151 151 245
// normals

338
(
(0.387309871354965 -0.921949599246618 0)
(0 -1 0)
(0.999772540610938 -0.0213276121577307 0)
(0.999509215630115 0.0313261531387457 -0)
(0.34185611364133 0.939752306496795 0)
(0 1 0)
(0 0 -1)
(-0 -0 -1)
(0 0 1)
(0 1 0)
(0 0 1)
(0 -1 0)
(0 0 1)
(1 -0 0)
(0 0 1)
(0 -1 0)
(0 0 1)
(0 1 0)
(0 0 1)
(-1 0 0)
(0 0 1)
(1 -0 0)
(0 0 1)
(-1 0 0)
(0 0 1)
(0 1 0)
(0 0 1)
(0 -1 0)
(-0.341902075825152 0.939735585442231 0)
(-0.396557693680436 -0.91800980146339 0)
(0.387309871354965 -0.921949599246618 0)
(0.426274527956612 -0.904593846328488 0)
(0.426274527956612 -0.904593846328488 0)
(0.46446176341371 -0.885593174277347 0)
(0.46446176341371 -0.885593174277347 0)
(0.501806796197042 -0.86497973345649 0)
(0.501806796197042 -0.86497973345649 0)
(0.538235094178327 -0.842794745709089 0)
(0.538235094178327 -0.842794745709089 0)
(0.573687873774474 -0.819074003667632 0)
(0.573687873774474 -0.819074003667632 0)
(0.608093882512315 -0.793865120817824 0)
(0.608093882512315 -0.793865120817824 0)
(0.641394776592545 -0.767211014362932 0)
(0.641394776592545 -0.767211014362932 0)
(0.673529932992888 -0.739159948429699 0)
(0.673529932992888 -0.739159948429699 0)
(0.704438870086981 -0.709764664033494 0)
(0.704438870086981 -0.709764664033494 0)
(0.734063151304545 -0.679081210089663 0)
(0.734063151304545 -0.679081210089663 0)
(0.762356304357833 -0.647157527350078 0)
(0.762356304357833 -0.647157527350078 0)
(0.78926036398681 -0.614058692503745 0)
(0.78926036398681 -0.614058692503745 0)
(0.814728857313723 -0.579842124254762 0)
(0.814728857313723 -0.579842124254762 0)
(0.838714865647443 -0.54457081646191 0)
(0.838714865647443 -0.54457081646191 0)
(0.861174521920635 -0.5083093967209 0)
(0.861174521920635 -0.5083093967209 0)
(0.88206808028116 -0.47112196058888 0)
(0.88206808028116 -0.47112196058888 0)
(0.90135639453363 -0.43307811077603 0)
(0.90135639453363 -0.43307811077603 0)
(0.919005338875916 -0.394245085089926 0)
(0.919005338875916 -0.394245085089926 0)
(0.934981397126483 -0.354696753618368 0)
(0.934981397126483 -0.354696753618368 0)
(0.949256537075745 -0.314502824818737 0)
(0.949256537075745 -0.314502824818737 0)
(0.961805423183665 -0.273734045990797 0)
(0.961805423183665 -0.273734045990797 0)
(0.972602938382544 -0.232472631184061 0)
(0.972602938382544 -0.232472631184061 0)
(0.981632478723252 -0.190781751526826 0)
(0.981632478723252 -0.190781751526826 0)
(0.988875344110266 -0.148746609409437 0)
(0.994318867775487 -0.106442421926948 0)
(0.988875344110266 -0.148746609409437 0)
(0.994318867775487 -0.106442421926948 0)
(0.997953573036565 -0.0639426779510667 0)
(0.999772540610938 -0.0213276121577307 0)
(0.997953573036565 -0.0639426779510667 0)
(0 0 -1)
(0 0 -1)
(0 0 -1)
(0 0 -1)
(0 0 -1)
(0 0 -1)
(0 0 -1)
(0 0 -1)
(0 0 -1)
(0 0 -1)
(0 0 -1)
(0 0 -1)
(0 0 1)
(0 0 1)
(0 0 1)
(0 0 1)
(0 0 1)
(0 0 1)
(0 0 1)
(0 0 1)
(0 0 1)
(0 0 1)
(0 0 1)
(0 0 1)
(0 0 1)
(0 0 1)
(0 0 1)
(0 0 1)
(0 0 1)
(0 0 1)
(0 0 1)
(0 0 -1)
(0.999509215630115 0.0313261531387457 0)
(0 0 1)
(0.995586008665358 0.0938536059498087 0)
(0 0 1)
(0.995586008665358 0.0938536059498087 -0)
(0 0 -1)
(0.987754725864324 0.156014747805119 0)
(0 0 1)
(0.987754725864324 0.156014747805119 -0)
(0 0 -1)
(0.976046430993548 0.217562323357599 0)
(0 0 1)
(0.976046430993548 0.217562323357599 -0)
(0.960506633836664 0.278257086802405 0)
(0 0 1)
(0.960506633836664 0.278257086802405 -0)
(0 0 -1)
(0.94119714334943 0.337857865604567 0)
(0 0 1)
(0.918193156742192 0.396132966201765 0)
(0 0 1)
(0.94119714334943 0.337857865604567 -0)
(0 0 -1)
(0.918193156742192 0.396132966201765 0)
(0.891584980544329 0.452853422718398 0)
(0 0 1)
(0.891584980544329 0.452853422718398 -0)
(0 0 -1)
(0.861476891077559 0.507796776416849 0)
(0 0 1)
(0.861476891077559 0.507796776416849 -0)
(0 0 -1)
(0.827987833140705 0.560746063892525 0)
(0 0 1)
(0.827987833140705 0.560746063892525 -0)
(0 0 -1)
(0.791247443659204 0.611496102115766 0)
(0 0 1)
(0.791247443659204 0.611496102115766 -0)
(0.751403667966447 0.659842805345765 0)
(0 0 1)
(0.751403667966447 0.659842805345765 -0)
(0 0 -1)
(0.708607749745431 0.705602619751881 0)
(0 0 1)
(0.663032084581497 0.748590979651448 0)
(0 0 1)
(0.708607749745431 0.705602619751881 -0)
(0 0 -1)
(0.663032084581497 0.748590979651448 0)
(-0 -0 -1)
(0.614854392528836 0.788640650732636 -0)
(0.614854392528836 0.788640650732636 0)
(0 0 1)
(0.564261038129726 0.825596439459839 -0)
(-0 -0 -1)
(0.564261038129726 0.825596439459839 0)
(0 0 1)
(0.511455060110857 0.859310026408979 -0)
(0.511455060110857 0.859310026408979 0)
(0 0 1)
(0.456640691877722 0.889651211723693 -0)
(-0 -0 -1)
(0.456640691877722 0.889651211723693 0)
(0 0 1)
(0.40003241972024 0.916500989182647 -0)
(0.40003241972024 0.916500989182647 0)
(0 0 1)
(0.34185611364133 0.939752306496795 0)
(0 0 1)
(0 0 -1)
(-0.706347661029499 -0.707865087257562 0)
(-0.660559344095136 -0.750773836070893 0)
(0 0 -1)
(-0.612172211133607 -0.79072446776092 0)
(-0.561373408511171 -0.827562623743092 0)
(0 0 -1)
(-0.860048962462858 -0.510211507285519 0)
(-0.826355898691242 -0.563148229774533 0)
(0 0 -1)
(-0.789409243103897 -0.613867287695095 0)
(0 0 -1)
(-0.74935341887089 -0.662170260300557 0)
(0 0 -1)
(-0.508364164137222 -0.861142193032639 0)
(0 0 -1)
(-0.917156339084894 -0.398527602151212 0)
(-0.890356072871134 -0.455264827876579 0)
(0 0 -1)
(-0.975540653407 -0.219819092779138 0)
(-0.959833309326874 -0.280570879291885 0)
(0 0 -1)
(-0.940346098301528 -0.340219363659821 0)
(0 0 -1)
(-0.987406607644155 -0.158203006231432 0)
(0 0 -1)
(-0.999443966878968 -0.0333430212973041 0)
(-0.995385186538176 -0.0959600459585136 0)
(0 -0 -1)
(-0.988021971047085 0.15431326815356 0)
(-0.995755144523454 0.0920417956967104 0)
(0 -0 -1)
(-0.999567521497435 0.0294069714094389 0)
(0 -0 -1)
(-0.960930016446391 0.276791444037452 0)
(-0.976398737049199 0.215975707635671 0)
(0 -0 -1)
(-0.941678518305195 0.336513845424721 0)
(-0.396557693680436 -0.91800980146339 0)
(0 -0 -1)
(-0.89214186343215 0.451755349178968 0)
(-0.918718460988264 0.394913141639216 0)
(0 -0 -1)
(-0.709128308628072 0.705079457864353 0)
(-0.751955283813531 0.659214116311925 0)
(0 -0 -1)
(-0.61528017766991 0.788308507480722 0)
(-0.663511172871216 0.748166374194312 0)
(0 -0 -1)
(-0.791819701932722 0.610754909625109 0)
(0 -0 -1)
(-0.828566809527191 0.559890205442041 0)
(0 -0 -1)
(-0.862050546017643 0.506822312167374 0)
(0 0 -1)
(-0.453352992368783 -0.891331063247697 0)
(0 -0 -1)
(-0.456859319482588 0.889538960474417 0)
(-0.511750357044983 0.85913419910066 0)
(0 -0 -1)
(-0.564627515401079 0.825345848024938 0)
(0 -0 -1)
(-0.4001685195794 0.916441572571667 0)
(0 0 1)
(-0.999443966878968 -0.0333430212973041 0)
(0 0 1)
(-0.995385186538176 -0.0959600459585136 0)
(0 0 1)
(-0.987406607644155 -0.158203006231432 0)
(0 0 1)
(-0.975540653407 -0.219819092779138 0)
(0 0 1)
(-0.959833309326874 -0.280570879291885 0)
(0 0 1)
(-0.940346098301528 -0.340219363659821 0)
(0 0 1)
(-0.917156339084894 -0.398527602151212 0)
(0 0 1)
(-0.890356072871134 -0.455264827876579 -0)
(0 0 1)
(-0.860048962462858 -0.510211507285519 0)
(0 0 1)
(-0.826355898691242 -0.563148229774533 0)
(0 0 1)
(-0.789409243103897 -0.613867287695095 0)
(0 0 1)
(-0.74935341887089 -0.662170260300557 -0)
(0 0 1)
(-0.706347661029499 -0.707865087257562 0)
(0 0 1)
(-0.660559344095136 -0.750773836070893 0)
(0 0 1)
(-0.612172211133607 -0.79072446776092 0)
(0 0 1)
(-0.561373408511171 -0.827562623743092 -0)
(0 0 1)
(-0.508364164137222 -0.861142193032639 0)
(0 0 1)
(-0.453352992368783 -0.891331063247697 -0)
(0 0 1)
(0 0 1)
(-0.918718460988264 0.394913141639216 0)
(0 0 1)
(-0.941678518305195 0.336513845424721 0)
(0 0 1)
(-0.960930016446391 0.276791444037452 0)
(0 0 1)
(-0.976398737049199 0.215975707635671 0)
(0 0 1)
(-0.988021971047085 0.15431326815356 0)
(0 0 1)
(-0.995755144523454 0.0920417956967104 0)
(0 0 1)
(-0.999567521497435 0.0294069714094389 0)
(0 0 1)
(-0.89214186343215 0.451755349178968 0)
(0 0 1)
(-0.862050546017643 0.506822312167374 0)
(0 0 1)
(-0.828566809527191 0.559890205442041 0)
(0 0 1)
(-0.791819701932722 0.610754909625109 0)
(0 0 1)
(-0.751955283813531 0.659214116311925 0)
(0 0 1)
(-0.709128308628072 0.705079457864353 0)
(0 0 1)
(-0.663511172871216 0.748166374194312 0)
(0 0 1)
(-0.61528017766991 0.788308507480722 0)
(0 0 1)
(-0.564627515401079 0.825345848024938 0)
(0 0 1)
(-0.511750357044983 0.85913419910066 0)
(0 0 1)
(-0.456859319482588 0.889538960474417 0)
(0 0 1)
(-0.4001685195794 0.916441572571667 0)
(0 0 1)
(-0.341902075825152 0.939735585442231 0)
(0 1 0)
(-1 0 0)
(0 0 1)
(1 0 0)
(0 -1 0)
(0 0 1)
(0 1 0)
(-1 0 0)
(0 0 1)
(1 0 0)
(0 -1 0)
(0 0 1)
)

// normal volume types

338
(
0
0
0
0
0
0
0
0
0
0
0
0
0
0
0
0
0
0
0
0
0
0
0
0
0
0
0
0
0
0
0
0
0
0
0
0
0
0
0
0
0
0
0
0
0
0
0
0
0
0
0
0
0
0
0
0
0
0
0
0
0
0
0
0
0
0
0
0
0
0
0
0
0
0
0
0
0
0
0
0
0
0
0
0
0
0
0
0
0
0
0
0
0
0
0
0
0
0
0
0
0
0
0
0
0
0
0
0
0
0
0
0
0
0
0
0
0
0
0
0
0
0
0
0
0
0
0
0
0
0
0
0
0
0
0
0
0
0
0
0
0
0
0
0
0
0
0
0
0
0
0
0
0
0
0
0
0
0
0
0
0
0
0
0
0
0
0
0
0
0
0
0
0
0
0
0
0
0
0
0
0
0
0
0
0
0
0
0
0
0
0
0
0
0
0
0
0
0
0
0
0
0
0
0
0
0
0
0
0
0
0
0
0
0
0
0
0
0
0
0
0
0
0
0
0
0
0
0
0
0
0
0
0
0
0
0
0
0
0
0
0
0
0
0
0
0
0
0
0
0
0
0
0
0
0
0
0
0
0
0
0
0
0
0
0
0
0
0
0
0
0
0
0
0
0
0
0
0
0
0
0
0
0
0
0
0
0
0
0
0
0
0
0
0
0
0
0
0
0
0
0
0
0
0
0
0
0
0
0
0
0
0
0
0
0
0
0
0
0
0
0
0
0
0
0
0
0
0
0
0
0
0
0
0
0
0
0
0
)

// normalDirections

245
(
2(1 -1)
2(1 -1)
2(1 -1)
2(1 -1)
2(1 -1)
2(1 -1)
2(1 -1)
2(1 -1)
2(1 -1)
2(1 -1)
2(1 -1)
2(1 -1)
2(1 -1)
2(1 -1)
2(1 -1)
2(1 -1)
2(1 -1)
2(1 -1)
2(1 -1)
2(1 -1)
2(1 -1)
2(1 -1)
2(1 -1)
2(1 -1)
2(1 -1)
2(1 -1)
2(1 -1)
2(1 -1)
2(1 -1)
2(1 -1)
2(1 -1)
2(1 -1)
2(1 -1)
2(1 -1)
2(1 -1)
2(1 -1)
2(1 -1)
2(1 -1)
2(1 -1)
2(1 -1)
2(1 -1)
2(1 -1)
2(1 -1)
2(1 -1)
2(1 -1)
2(1 -1)
2(1 -1)
2(1 -1)
2(1 -1)
2(1 -1)
2(1 -1)
2(1 -1)
2(1 -1)
2(1 -1)
2(1 -1)
2(1 -1)
2(1 -1)
2(1 -1)
2(1 -1)
2(1 -1)
2(1 -1)
2(1 -1)
2(1 -1)
2(1 -1)
2(1 -1)
2(1 -1)
2(1 -1)
2(1 -1)
2(1 -1)
2(1 -1)
2(1 -1)
2(1 -1)
2(1 -1)
2(1 -1)
2(1 -1)
2(1 -1)
2(1 -1)
2(1 -1)
2(1 -1)
2(1 -1)
2(1 -1)
2(1 -1)
2(1 -1)
2(1 -1)
2(1 -1)
2(1 -1)
2(1 -1)
2(1 -1)
2(1 -1)
2(1 -1)
2(1 -1)
2(1 -1)
2(1 -1)
2(1 -1)
2(1 -1)
2(1 -1)
2(1 -1)
2(1 -1)
2(1 -1)
2(1 -1)
2(1 -1)
2(1 -1)
2(1 -1)
2(1 -1)
2(1 -1)
2(1 -1)
2(1 -1)
2(1 -1)
2(1 -1)
2(1 -1)
2(1 -1)
2(1 -1)
2(1 -1)
2(1 -1)
2(1 -1)
2(1 -1)
2(1 -1)
2(1 -1)
2(1 -1)
2(1 -1)
2(1 -1)
2(1 -1)
2(1 -1)
2(1 -1)
2(1 -1)
2(1 -1)
2(1 -1)
2(1 -1)
2(1 -1)
2(1 -1)
2(1 -1)
2(1 -1)
2(1 -1)
2(1 -1)
2(1 -1)
2(1 -1)
2(1 -1)
2(1 -1)
2(1 -1)
2(1 -1)
2(1 -1)
2(1 -1)
2(1 -1)
2(1 -1)
2(1 -1)
2(1 -1)
2(1 -1)
2(1 -1)
2(1 -1)
2(1 -1)
2(1 -1)
1(1)
1(1)
1(1)
1(1)
1(1)
1(1)
1(1)
1(1)
1(1)
1(1)
1(1)
1(1)
1(1)
1(1)
1(1)
1(1)
1(1)
1(1)
1(1)
1(1)
1(1)
1(1)
1(1)
1(1)
1(1)
1(1)
1(1)
1(1)
1(1)
1(1)
1(1)
1(1)
1(1)
1(1)
1(1)
1(1)
1(1)
1(1)
1(1)
1(1)
1(1)
1(1)
1(1)
1(1)
1(1)
1(1)
1(1)
1(1)
1(1)
1(1)
1(1)
1(1)
1(1)
1(1)
1(1)
1(1)
1(1)
1(1)
1(1)
1(1)
1(1)
1(1)
1(1)
1(1)
1(1)
1(1)
1(1)
1(1)
1(1)
1(1)
1(1)
1(1)
1(1)
1(1)
1(1)
1(1)
1(1)
1(1)
1(1)
1(1)
1(1)
1(1)
1(1)
1(1)
1(1)
1(1)
1(1)
1(1)
1(1)
1(1)
1(1)
1(1)
1(1)
1(1)
)

// edgeNormals

245
(
2(0 1)
2(2 3)
2(4 5)
2(6 1)
2(7 5)
2(8 9)
2(10 11)
2(12 13)
2(14 15)
2(16 17)
2(18 19)
2(20 21)
2(22 23)
2(24 25)
2(26 27)
2(28 25)
2(29 11)
2(3 115)
2(116 117)
2(118 119)
2(120 121)
2(122 123)
2(124 125)
2(126 127)
2(128 125)
2(129 130)
2(131 132)
2(133 134)
2(135 136)
2(137 138)
2(139 138)
2(140 141)
2(142 143)
2(144 145)
2(146 147)
2(148 149)
2(150 151)
2(152 153)
2(154 151)
2(155 156)
2(157 158)
2(159 160)
2(161 162)
2(163 164)
2(165 166)
2(167 166)
2(168 169)
2(170 171)
2(172 173)
2(174 171)
2(175 176)
2(177 178)
2(179 180)
2(181 178)
2(182 183)
2(184 185)
2(4 7)
2(186 187)
2(186 188)
2(189 190)
2(189 191)
2(192 193)
2(192 194)
2(195 196)
2(197 198)
2(199 200)
2(201 202)
2(201 203)
2(204 205)
2(204 206)
2(207 208)
2(209 210)
2(211 212)
2(211 213)
2(214 215)
2(214 216)
2(217 218)
2(219 220)
2(219 221)
2(222 223)
2(6 224)
2(225 226)
2(225 227)
2(228 229)
2(228 230)
2(231 232)
2(231 233)
2(234 235)
2(236 237)
2(238 239)
2(240 241)
2(242 243)
2(242 244)
2(245 246)
2(247 28)
2(247 248)
2(249 250)
2(251 252)
2(253 254)
2(255 256)
2(257 258)
2(259 260)
2(261 262)
2(263 264)
2(265 266)
2(267 268)
2(269 270)
2(271 272)
2(273 274)
2(275 276)
2(277 278)
2(279 280)
2(281 282)
2(283 284)
2(285 29)
2(286 287)
2(288 289)
2(290 291)
2(292 293)
2(294 295)
2(296 297)
2(298 299)
2(300 301)
2(302 303)
2(304 305)
2(306 307)
2(308 309)
2(310 311)
2(312 313)
2(314 315)
2(316 317)
2(318 319)
2(320 321)
2(322 323)
2(324 325)
2(326 327)
2(326 328)
2(17 329)
2(327 328)
2(23 330)
2(329 331)
2(21 27)
2(330 331)
2(332 333)
2(332 334)
2(9 335)
2(333 334)
2(19 336)
2(335 337)
2(13 15)
2(336 337)
1(0)
1(30)
1(31)
1(32)
1(33)
1(34)
1(35)
1(36)
1(37)
1(38)
1(39)
1(40)
1(41)
1(42)
1(43)
1(44)
1(45)
1(46)
1(47)
1(48)
1(49)
1(50)
1(51)
1(52)
1(53)
1(54)
1(55)
1(56)
1(57)
1(58)
1(59)
1(60)
1(61)
1(62)
1(63)
1(64)
1(65)
1(66)
1(67)
1(68)
1(69)
1(70)
1(71)
1(72)
1(73)
1(74)
1(75)
1(76)
1(77)
1(78)
1(79)
1(80)
1(81)
1(82)
1(83)
1(2)
1(84)
1(84)
1(85)
1(85)
1(86)
1(86)
1(87)
1(88)
1(88)
1(89)
1(89)
1(90)
1(91)
1(91)
1(92)
1(92)
1(93)
1(94)
1(95)
1(96)
1(97)
1(98)
1(99)
1(100)
1(101)
1(102)
1(103)
1(104)
1(105)
1(106)
1(107)
1(108)
1(109)
1(110)
1(111)
1(112)
1(113)
1(114)
)

// featurePointNormals

26
(
3(4 5 24)
3(4 5 7)
3(6 1 29)
3(7 5 28)
3(10 11 29)
3(24 25 28)
3(326 327 328)
3(326 328 329)
3(327 328 330)
3(329 331 27)
3(332 333 334)
3(332 334 335)
3(333 334 336)
3(335 337 15)
3(0 1 6)
3(0 1 10)
3(2 3 117)
3(2 3 115)
3(8 9 13)
3(8 9 19)
3(12 13 15)
3(14 15 19)
3(16 17 21)
3(16 17 23)
3(20 21 27)
3(22 23 27)
)

// featurePointEdges

26
(
3(2 13 55)
3(56 4 2)
3(80 16 3)
3(4 15 94)
3(6 16 114)
3(13 15 134)
3(135 138 136)
3(137 140 136)
3(139 142 138)
3(141 142 140)
3(143 146 144)
3(145 148 144)
3(147 150 146)
3(149 150 148)
4(0 3 151 208)
4(0 6 152 226)
4(1 18 204 244)
4(1 17 206 225)
3(5 145 7)
3(10 143 5)
3(7 149 8)
3(10 147 8)
3(9 137 11)
3(12 135 9)
3(11 141 14)
3(14 139 12)
)

// regionEdges

111
(
0
1
2
3
4
5
6
7
8
9
10
11
12
13
14
15
16
151
152
153
154
155
156
157
158
159
160
161
162
163
164
165
166
167
168
169
170
171
172
173
174
175
176
177
178
179
180
181
182
183
184
185
186
187
188
189
190
191
192
193
194
195
196
197
198
199
200
201
202
203
204
205
206
207
208
209
210
211
212
213
214
215
216
217
218
219
220
221
222
223
224
225
226
227
228
229
230
231
232
233
234
235
236
237
238
239
240
241
242
243
244
)



// ************************************************************************* //
