/*--------------------------------*- C++ -*----------------------------------*\
| =========                 |                                                 |
| \\      /  F ield         | OpenFOAM: The Open Source CFD Toolbox           |
|  \\    /   O peration     | Version:  2406                                  |
|   \\  /    A nd           | Website:  www.openfoam.com                      |
|    \\/     M anipulation  |                                                 |
\*---------------------------------------------------------------------------*/
FoamFile
{
    version     2.0;
    format      ascii;
    arch        "LSB;label=32;scalar=64";
    class       extendedFeatureEdgeMesh;
    location    "constant/extendedFeatureEdgeMesh";
    object      Pad_Geometry.extendedFeatureEdgeMesh;
}
// * * * * * * * * * * * * * * * * * * * * * * * * * * * * * * * * * * * * * //

// points

24
(
(0.017750907689333 0.100000001490116 0)
(0.017750907689333 0.0649999976158142 0)
(0.017750907689333 0.100000001490116 0.00999999977648258)
(0.017750907689333 0.0649999976158142 0.00999999977648258)
(0.177750915288925 0.100000001490116 0)
(0.177750915288925 0.100000001490116 0.00999999977648258)
(0.177750915288925 0.0649999976158142 0)
(0.177750915288925 0.0649999976158142 0.00999999977648258)
(0.177750915288925 0 0)
(0.177750915288925 0.0350000001490116 0)
(0.177750915288925 0 0.00999999977648258)
(0.177750915288925 0.0350000001490116 0.00999999977648258)
(0.017750907689333 0 0)
(0.017750907689333 0 0.00999999977648258)
(0.017750907689333 0.0350000001490116 0)
(0.017750907689333 0.0350000001490116 0.00999999977648258)
(0.0477509088814259 0.0350000001490116 0)
(0.0477509088814259 0.0649999976158142 0)
(0.147750914096832 0.0350000001490116 0)
(0.147750914096832 0.0649999976158142 0)
(0.0477509088814259 0.0350000001490116 0.00999999977648258)
(0.0477509088814259 0.0649999976158142 0.00999999977648258)
(0.147750914096832 0.0350000001490116 0.00999999977648258)
(0.147750914096832 0.0649999976158142 0.00999999977648258)
)

// edges

36
(
(0 1)
(3 2)
(1 3)
(4 0)
(2 5)
(6 4)
(5 7)
(7 6)
(8 9)
(11 10)
(9 11)
(12 8)
(10 13)
(14 12)
(15 14)
(13 15)
(14 16)
(17 1)
(16 17)
(19 18)
(18 9)
(6 19)
(20 15)
(3 21)
(21 20)
(22 23)
(11 22)
(23 7)
(2 0)
(5 4)
(10 8)
(13 12)
(23 19)
(22 18)
(20 16)
(21 17)
)

// concaveStart mixedStart nonFeatureStart
16 16 24
// internalStart flatStart openStart multipleStart
32 36 36 36
// normals

40
(
(-1 0 0)
(0 0 -1)
(-1 -0 0)
(0 0 1)
(0 -1 0)
(0 1 0)
(0 0 -1)
(0 1 -0)
(0 0 1)
(1 0 0)
(0 0 -1)
(1 0 0)
(0 0 1)
(0 -1 0)
(1 0 0)
(0 0 -1)
(1 -0 0)
(0 0 1)
(0 1 -0)
(0 -1 0)
(0 0 -1)
(0 -1 0)
(0 0 1)
(-1 0 0)
(0 0 -1)
(0 1 0)
(-1 -0 0)
(0 0 1)
(0 1 -0)
(0 0 -1)
(-1 0 0)
(0 0 -1)
(1 0 0)
(0 -1 0)
(0 -1 0)
(0 0 1)
(-1 -0 0)
(0 0 1)
(1 -0 0)
(0 1 0)
)

// normal volume types

40
(
0
0
0
0
0
0
0
0
0
0
0
0
0
0
0
0
0
0
0
0
0
0
0
0
0
0
0
0
0
0
0
0
0
0
0
0
0
0
0
0
)

// normalDirections

36
(
2(1 -1)
2(1 -1)
2(1 -1)
2(1 -1)
2(1 -1)
2(1 -1)
2(1 -1)
2(1 -1)
2(1 -1)
2(1 -1)
2(1 -1)
2(1 -1)
2(1 -1)
2(1 -1)
2(1 -1)
2(1 -1)
2(1 -1)
2(1 -1)
2(1 -1)
2(1 -1)
2(1 -1)
2(1 -1)
2(1 -1)
2(1 -1)
2(1 -1)
2(1 -1)
2(1 -1)
2(1 -1)
2(1 -1)
2(1 -1)
2(1 -1)
2(1 -1)
2(1 -1)
2(1 -1)
2(1 -1)
2(1 -1)
)

// edgeNormals

36
(
2(0 1)
2(2 3)
2(2 4)
2(5 6)
2(7 8)
2(9 10)
2(11 12)
2(11 13)
2(14 15)
2(16 17)
2(16 18)
2(19 20)
2(21 22)
2(23 24)
2(23 25)
2(26 27)
2(24 28)
2(1 4)
2(29 30)
2(31 32)
2(15 18)
2(10 33)
2(27 25)
2(3 34)
2(35 36)
2(37 38)
2(17 39)
2(12 13)
2(0 5)
2(7 9)
2(14 19)
2(21 26)
2(33 38)
2(32 39)
2(28 36)
2(30 34)
)

// featurePointNormals

24
(
3(0 1 5)
3(0 1 4)
3(2 3 7)
3(2 3 4)
3(5 6 9)
3(7 8 11)
3(9 10 13)
3(11 12 13)
3(14 15 19)
3(14 15 18)
3(16 17 21)
3(16 17 18)
3(19 20 23)
3(21 22 26)
3(23 24 25)
3(23 25 27)
3(24 28 30)
3(1 4 30)
3(31 32 18)
3(31 32 33)
3(27 25 36)
3(3 34 36)
3(37 38 39)
3(37 38 13)
)

// featurePointEdges

24
(
3(28 3 0)
3(2 17 0)
3(1 4 28)
3(1 23 2)
3(29 5 3)
3(29 6 4)
3(7 21 5)
3(6 27 7)
3(30 11 8)
3(10 20 8)
3(9 12 30)
3(9 26 10)
3(31 13 11)
3(31 15 12)
3(13 16 14)
3(15 22 14)
3(18 34 16)
3(18 35 17)
3(19 33 20)
3(19 32 21)
3(24 34 22)
3(24 35 23)
3(25 33 26)
3(25 32 27)
)

// regionEdges

28
(
0
1
2
3
4
5
6
7
8
9
10
11
12
13
14
15
16
17
18
19
20
21
22
23
24
25
26
27
)



// ************************************************************************* //
