/*--------------------------------*- C++ -*----------------------------------*\
| =========                 |                                                 |
| \\      /  F ield         | OpenFOAM: The Open Source CFD Toolbox           |
|  \\    /   O peration     | Version:  2406                                  |
|   \\  /    A nd           | Website:  www.openfoam.com                      |
|    \\/     M anipulation  |                                                 |
\*---------------------------------------------------------------------------*/
FoamFile
{
    version     2.0;
    format      ascii;
    arch        "LSB;label=32;scalar=64";
    class       extendedFeatureEdgeMesh;
    location    "constant/extendedFeatureEdgeMesh";
    object      Cylinder.extendedFeatureEdgeMesh;
}
// * * * * * * * * * * * * * * * * * * * * * * * * * * * * * * * * * * * * * //

// points

80
(
(8.40217 -1.64012 -0.246807)
(8.40217 1.64012 -0.246807)
(11.5978 1.64012 -0.246807)
(11.5978 -1.64012 -0.246807)
(-11.5978 -1.64012 -0.246807)
(-11.5978 1.64012 -0.246807)
(-8.40217 1.64012 -0.246807)
(-8.40217 -1.64012 -0.246807)
(-11.5978 -1.64012 5)
(-11.5978 1.64012 5)
(8.40217 1.64012 5)
(-8.40217 -1.64012 5)
(8.40217 -1.64012 5)
(-8.40217 1.64012 5)
(11.5978 -1.64012 5)
(11.5978 1.64012 5)
(0 20 5)
(3.90181 19.6157 5)
(3.90181 19.6157 -5)
(0 20 -5)
(7.65367 18.4776 5)
(7.65367 18.4776 -5)
(11.1114 16.6294 5)
(11.1114 16.6294 -5)
(14.1421 14.1421 5)
(14.1421 14.1421 -5)
(16.6294 11.1114 5)
(16.6294 11.1114 -5)
(18.4776 7.65367 5)
(18.4776 7.65367 -5)
(19.6157 3.90181 5)
(19.6157 3.90181 -5)
(20 0 5)
(20 0 -5)
(19.6157 -3.90181 5)
(19.6157 -3.90181 -5)
(18.4776 -7.65367 5)
(18.4776 -7.65367 -5)
(16.6294 -11.1114 5)
(16.6294 -11.1114 -5)
(14.1421 -14.1421 5)
(14.1421 -14.1421 -5)
(11.1114 -16.6294 5)
(11.1114 -16.6294 -5)
(7.65367 -18.4776 5)
(7.65367 -18.4776 -5)
(3.90181 -19.6157 5)
(3.90181 -19.6157 -5)
(0 -20 5)
(0 -20 -5)
(-3.90181 -19.6157 5)
(-3.90181 -19.6157 -5)
(-7.65367 -18.4776 5)
(-7.65367 -18.4776 -5)
(-11.1114 -16.6294 5)
(-11.1114 -16.6294 -5)
(-14.1421 -14.1421 5)
(-14.1421 -14.1421 -5)
(-16.6294 -11.1114 5)
(-16.6294 -11.1114 -5)
(-18.4776 -7.65367 5)
(-18.4776 -7.65367 -5)
(-19.6157 -3.90181 5)
(-19.6157 -3.90181 -5)
(-20 0 5)
(-20 0 -5)
(-19.6157 3.90181 5)
(-19.6157 3.90181 -5)
(-18.4776 7.65367 5)
(-18.4776 7.65367 -5)
(-16.6294 11.1114 5)
(-16.6294 11.1114 -5)
(-14.1421 14.1421 5)
(-14.1421 14.1421 -5)
(-11.1114 16.6294 5)
(-11.1114 16.6294 -5)
(-7.65367 18.4776 5)
(-7.65367 18.4776 -5)
(-3.90181 19.6157 5)
(-3.90181 19.6157 -5)
)

// edges

88
(
(16 17)
(18 19)
(17 20)
(21 18)
(20 22)
(23 21)
(22 24)
(25 23)
(24 26)
(27 25)
(26 28)
(29 27)
(28 30)
(31 29)
(30 32)
(33 31)
(32 34)
(35 33)
(34 36)
(37 35)
(36 38)
(39 37)
(38 40)
(41 39)
(40 42)
(43 41)
(42 44)
(45 43)
(44 46)
(47 45)
(46 48)
(49 47)
(48 50)
(51 49)
(50 52)
(53 51)
(52 54)
(55 53)
(54 56)
(57 55)
(56 58)
(59 57)
(58 60)
(61 59)
(60 62)
(63 61)
(62 64)
(65 63)
(64 66)
(67 65)
(66 68)
(69 67)
(68 70)
(71 69)
(70 72)
(73 71)
(72 74)
(75 73)
(74 76)
(77 75)
(8 9)
(78 76)
(16 78)
(12 10)
(13 11)
(9 13)
(14 12)
(11 8)
(10 15)
(15 14)
(79 77)
(19 79)
(12 0)
(0 1)
(1 10)
(1 2)
(2 15)
(3 14)
(2 3)
(3 0)
(8 4)
(4 5)
(5 9)
(5 6)
(6 13)
(7 11)
(6 7)
(7 4)
)

// concaveStart mixedStart nonFeatureStart
0 8 16
// internalStart flatStart openStart multipleStart
72 88 88 88
// normals

126
(
(0.0980172 0.995185 -0)
(0 0 1)
(0.0980172 0.995185 0)
(0 0 -1)
(0.290285 0.95694 -0)
(0 0 1)
(0.290285 0.95694 0)
(0 0 -1)
(0.471397 0.881921 -0)
(0 0 1)
(0.471397 0.881921 0)
(0.634393 0.77301 -0)
(0.634393 0.77301 0)
(0 0 -1)
(0.77301 0.634393 -0)
(0 0 1)
(0.77301 0.634393 0)
(0.881921 0.471397 -0)
(0.881921 0.471397 0)
(0 0 -1)
(0.95694 0.290285 -0)
(0 0 1)
(0.95694 0.290285 0)
(0.995185 0.0980172 -0)
(0.995185 0.0980172 0)
(0 0 -1)
(0.995185 -0.0980172 0)
(0 0 1)
(0.995185 -0.0980172 0)
(0.95694 -0.290285 0)
(0.95694 -0.290285 0)
(0 0 -1)
(0.881921 -0.471397 0)
(0 0 1)
(0.881921 -0.471397 0)
(0.77301 -0.634393 0)
(0.77301 -0.634393 0)
(0 0 -1)
(0.634393 -0.77301 0)
(0 0 1)
(0.634393 -0.77301 0)
(0.471397 -0.881921 0)
(0.471397 -0.881921 0)
(0 0 -1)
(0.290285 -0.95694 0)
(0 0 1)
(0.290285 -0.95694 0)
(0.0980172 -0.995185 0)
(0.0980172 -0.995185 0)
(-0 0 -1)
(-0.0980172 -0.995185 0)
(0 0 1)
(-0.0980172 -0.995185 0)
(-0.290285 -0.95694 0)
(-0.290285 -0.95694 0)
(0 0 -1)
(-0.471397 -0.881921 0)
(0 0 1)
(-0.471397 -0.881921 0)
(-0.634393 -0.77301 0)
(-0.634393 -0.77301 0)
(0 0 -1)
(-0.77301 -0.634393 0)
(0 0 1)
(-0.77301 -0.634393 0)
(-0.881921 -0.471397 0)
(-0.881921 -0.471397 0)
(0 0 -1)
(-0.95694 -0.290285 0)
(0 0 1)
(-0.95694 -0.290285 0)
(-0.995185 -0.0980172 0)
(0 0 1)
(-0.995185 -0.0980172 0)
(0 0 -1)
(-0.995185 0.0980172 0)
(0 0 1)
(-0.995185 0.0980172 0)
(-0.95694 0.290285 0)
(-0.95694 0.290285 0)
(0 0 -1)
(-0.881921 0.471397 0)
(0 0 1)
(-0.881921 0.471397 0)
(-0.77301 0.634393 0)
(-0.77301 0.634393 0)
(0 0 -1)
(-0.634393 0.77301 0)
(0 0 1)
(-0.634393 0.77301 0)
(-0.471397 0.881921 0)
(-0.471397 0.881921 0)
(0 0 -1)
(-0 0 1)
(1 -0 0)
(0 0 1)
(-0.290285 0.95694 0)
(-0.0980172 0.995185 0)
(0 0 1)
(1 -0 0)
(-0 0 1)
(-1 0 0)
(0 0 1)
(0 -1 0)
(0 0 1)
(0 1 -0)
(0 0 1)
(0 1 -0)
(0 0 1)
(0 -1 0)
(0 0 1)
(-1 0 0)
(-0.290285 0.95694 0)
(-0.0980172 0.995185 0)
(1 0 0)
(0 1 0)
(0 0 1)
(0 -1 0)
(-0 0 1)
(-1 0 0)
(1 0 0)
(0 1 0)
(0 0 1)
(0 -1 0)
(-0 0 1)
(-1 0 0)
)

// normal volume types

126
(
0
0
0
0
0
0
0
0
0
0
0
0
0
0
0
0
0
0
0
0
0
0
0
0
0
0
0
0
0
0
0
0
0
0
0
0
0
0
0
0
0
0
0
0
0
0
0
0
0
0
0
0
0
0
0
0
0
0
0
0
0
0
0
0
0
0
0
0
0
0
0
0
0
0
0
0
0
0
0
0
0
0
0
0
0
0
0
0
0
0
0
0
0
0
0
0
0
0
0
0
0
0
0
0
0
0
0
0
0
0
0
0
0
0
0
0
0
0
0
0
0
0
0
0
0
0
)

// normalDirections

88
(
2(1 -1)
2(1 -1)
2(1 -1)
2(1 -1)
2(1 -1)
2(1 -1)
2(1 -1)
2(1 -1)
2(1 -1)
2(1 -1)
2(1 -1)
2(1 -1)
2(1 -1)
2(1 -1)
2(1 -1)
2(1 -1)
2(1 -1)
2(1 -1)
2(1 -1)
2(1 -1)
2(1 -1)
2(1 -1)
2(1 -1)
2(1 -1)
2(1 -1)
2(1 -1)
2(1 -1)
2(1 -1)
2(1 -1)
2(1 -1)
2(1 -1)
2(1 -1)
2(1 -1)
2(1 -1)
2(1 -1)
2(1 -1)
2(1 -1)
2(1 -1)
2(1 -1)
2(1 -1)
2(1 -1)
2(1 -1)
2(1 -1)
2(1 -1)
2(1 -1)
2(1 -1)
2(1 -1)
2(1 -1)
2(1 -1)
2(1 -1)
2(1 -1)
2(1 -1)
2(1 -1)
2(1 -1)
2(1 -1)
2(1 -1)
2(1 -1)
2(1 -1)
2(1 -1)
2(1 -1)
2(1 -1)
2(1 -1)
2(1 -1)
2(1 -1)
2(1 -1)
2(1 -1)
2(1 -1)
2(1 -1)
2(1 -1)
2(1 -1)
2(1 -1)
2(1 -1)
2(1 -1)
2(1 -1)
2(1 -1)
2(1 -1)
2(1 -1)
2(1 -1)
2(1 -1)
2(1 -1)
2(1 -1)
2(1 -1)
2(1 -1)
2(1 -1)
2(1 -1)
2(1 -1)
2(1 -1)
2(1 -1)
)

// edgeNormals

88
(
2(0 1)
2(2 3)
2(4 5)
2(6 7)
2(8 9)
2(10 7)
2(11 9)
2(12 13)
2(14 15)
2(16 13)
2(17 15)
2(18 19)
2(20 21)
2(22 19)
2(23 21)
2(24 25)
2(26 27)
2(28 25)
2(29 27)
2(30 31)
2(32 33)
2(34 31)
2(35 33)
2(36 37)
2(38 39)
2(40 37)
2(41 39)
2(42 43)
2(44 45)
2(46 43)
2(47 45)
2(48 49)
2(50 51)
2(52 49)
2(53 51)
2(54 55)
2(56 57)
2(58 55)
2(59 57)
2(60 61)
2(62 63)
2(64 61)
2(65 63)
2(66 67)
2(68 69)
2(70 67)
2(71 72)
2(73 74)
2(75 76)
2(77 74)
2(78 76)
2(79 80)
2(81 82)
2(83 80)
2(84 82)
2(85 86)
2(87 88)
2(89 86)
2(90 88)
2(91 92)
2(93 94)
2(95 96)
2(1 97)
2(98 99)
2(100 101)
2(102 103)
2(104 105)
2(106 107)
2(108 109)
2(110 111)
2(112 92)
2(113 3)
2(114 115)
2(114 116)
2(99 117)
2(117 118)
2(109 111)
2(119 105)
2(119 118)
2(115 116)
2(120 121)
2(120 122)
2(94 123)
2(123 124)
2(103 101)
2(125 107)
2(125 124)
2(121 122)
)

// featurePointNormals

16
(
3(114 115 116)
3(114 116 117)
3(117 118 111)
3(119 105 118)
3(120 121 122)
3(120 122 123)
3(123 124 101)
3(125 107 124)
3(93 94 107)
3(93 94 103)
3(98 99 109)
3(100 101 107)
3(98 99 105)
3(100 101 103)
3(104 105 111)
3(108 109 111)
)

// featurePointEdges

16
(
3(72 79 73)
3(74 75 73)
3(76 78 75)
3(77 79 78)
3(80 87 81)
3(82 83 81)
3(84 86 83)
3(85 87 86)
3(60 80 67)
3(65 82 60)
3(63 74 68)
3(64 85 67)
3(66 72 63)
3(65 84 64)
3(69 77 66)
3(69 76 68)
)

// regionEdges
0()


// ************************************************************************* //
