/*--------------------------------*- C++ -*----------------------------------*\
| =========                 |                                                 |
| \\      /  F ield         | OpenFOAM: The Open Source CFD Toolbox           |
|  \\    /   O peration     | Version:  2406                                  |
|   \\  /    A nd           | Website:  www.openfoam.com                      |
|    \\/     M anipulation  |                                                 |
\*---------------------------------------------------------------------------*/
FoamFile
{
    version     2.0;
    format      ascii;
    arch        "LSB;label=32;scalar=64";
    class       polyBoundaryMesh;
    location    "2/polyMesh";
    object      boundary;
}
// * * * * * * * * * * * * * * * * * * * * * * * * * * * * * * * * * * * * * //

7
(
    world
    {
        type            patch;
        nFaces          88704;
        startFace       3932020;
    }
    cooler
    {
        type            wall;
        inGroups        1(wall);
        nFaces          1428;
        startFace       4020724;
    }
    Cylinder
    {
        type            wall;
        inGroups        1(wall);
        nFaces          63848;
        startFace       4022152;
    }
    Cylinder_slave
    {
        type            wall;
        inGroups        1(wall);
        nFaces          63848;
        startFace       4086000;
    }
    heater
    {
        type            wall;
        inGroups        1(wall);
        nFaces          1428;
        startFace       4149848;
    }
    inlet
    {
        type            patch;
        nFaces          1440;
        startFace       4151276;
    }
    outlet
    {
        type            patch;
        nFaces          1440;
        startFace       4152716;
    }
)

// ************************************************************************* //
