/*--------------------------------*- C++ -*----------------------------------*\
| =========                 |                                                 |
| \\      /  F ield         | OpenFOAM: The Open Source CFD Toolbox           |
|  \\    /   O peration     | Version:  2406                                  |
|   \\  /    A nd           | Website:  www.openfoam.com                      |
|    \\/     M anipulation  |                                                 |
\*---------------------------------------------------------------------------*/
FoamFile
{
    version     2.0;
    format      ascii;
    arch        "LSB;label=32;scalar=64";
    class       featureEdgeMesh;
    location    "constant/triSurface";
    object      Cut003_Geometry.eMesh;
}
// * * * * * * * * * * * * * * * * * * * * * * * * * * * * * * * * * * * * * //


// points:

230
(
(0.0624499805271626 0.189999997615814 0.0399999991059303)
(0.0624499805271626 0.189999997615814 0)
(-0.0735118985176086 -0.186000004410744 0)
(-0.0624499805271626 0.189999997615814 0)
(-0.0735118985176086 -0.186000004410744 0.0399999991059303)
(-0.0624499805271626 0.189999997615814 0.0399999991059303)
(0.100000001490116 -0.0199999995529652 0.00999999977648258)
(0.0599999986588955 -0.0199999995529652 0.00999999977648258)
(0.100000001490116 0.0199999995529652 0.00999999977648258)
(0.0599999986588955 0.0199999995529652 0.00999999977648258)
(-0.0599999986588955 -0.0199999995529652 0.00999999977648258)
(-0.100000001490116 -0.0199999995529652 0.00999999977648258)
(-0.0599999986588955 0.0199999995529652 0.00999999977648258)
(-0.100000001490116 0.0199999995529652 0.00999999977648258)
(0.0735118985176086 -0.186000004410744 0)
(0.0735118985176086 -0.186000004410744 0.0399999991059303)
(0.200000002980232 -4.89999990395467e-17 0.0399999991059303)
(0.200000002980232 -4.89999990395467e-17 0)
(-0.100000001490116 -0.0199999995529652 0.0399999991059303)
(-0.0599999986588955 -0.0199999995529652 0.0399999991059303)
(-0.100000001490116 0.0199999995529652 0.0399999991059303)
(-0.0599999986588955 0.0199999995529652 0.0399999991059303)
(0.0599999986588955 -0.0199999995529652 0.0399999991059303)
(0.100000001490116 -0.0199999995529652 0.0399999991059303)
(0.0599999986588955 0.0199999995529652 0.0399999991059303)
(0.100000001490116 0.0199999995529652 0.0399999991059303)
(0.0813769400119781 -0.182695910334587 0)
(0.0813769400119781 -0.182695910334587 0.0399999991059303)
(0.089093916118145 -0.179059416055679 0.0399999991059303)
(0.089093916118145 -0.179059416055679 0)
(0.0966487973928452 -0.175097152590752 0.0399999991059303)
(0.0966487973928452 -0.175097152590752 0)
(0.104027830064297 -0.1708163022995 0.0399999991059303)
(0.104027830064297 -0.1708163022995 0)
(0.111217603087425 -0.16622468829155 0.0399999991059303)
(0.111217603087425 -0.16622468829155 0)
(0.118205025792122 -0.161330625414848 0.0399999991059303)
(0.118205025792122 -0.161330625414848 0)
(0.124977387487888 -0.156143054366112 0.0399999991059303)
(0.124977387487888 -0.156143054366112 0)
(0.131522372364998 -0.150671392679214 0.0399999991059303)
(0.131522372364998 -0.150671392679214 0)
(0.137828052043915 -0.144925594329834 0.0399999991059303)
(0.137828052043915 -0.144925594329834 0)
(0.1438829600811 -0.138916119933128 0)
(0.1438829600811 -0.138916119933128 0.0399999991059303)
(0.149676114320755 -0.132653921842575 0)
(0.149676114320755 -0.132653921842575 0.0399999991059303)
(0.155196934938431 -0.126150354743004 0)
(0.155196934938431 -0.126150354743004 0.0399999991059303)
(0.160435393452644 -0.119417272508144 0)
(0.160435393452644 -0.119417272508144 0.0399999991059303)
(0.165381953120232 -0.112466923892498 0)
(0.165381953120232 -0.112466923892498 0.0399999991059303)
(0.170027613639832 -0.105311959981918 0)
(0.170027613639832 -0.105311959981918 0.0399999991059303)
(0.174363940954208 -0.097965382039547 0.0399999991059303)
(0.174363940954208 -0.097965382039547 0)
(0.178383022546768 -0.090440571308136 0)
(0.178383022546768 -0.090440571308136 0.0399999991059303)
(0.182077556848526 -0.0827512145042419 0.0399999991059303)
(0.182077556848526 -0.0827512145042419 0)
(0.185440808534622 -0.0749113038182259 0)
(0.185440808534622 -0.0749113038182259 0.0399999991059303)
(0.188466683030128 -0.0669350922107697 0.0399999991059303)
(0.188466683030128 -0.0669350922107697 0)
(0.191149666905403 -0.058837104588747 0)
(0.191149666905403 -0.058837104588747 0.0399999991059303)
(0.193484857678413 -0.0506320632994175 0.0399999991059303)
(0.193484857678413 -0.0506320632994175 0)
(0.195468053221703 -0.0423349067568779 0)
(0.195468053221703 -0.0423349067568779 0.0399999991059303)
(0.197095587849617 -0.0339607261121273 0.0399999991059303)
(0.197095587849617 -0.0339607261121273 0)
(0.198364526033401 -0.0255247578024864 0.0399999991059303)
(0.199272572994232 -0.0170423481613398 0.0399999991059303)
(0.198364526033401 -0.0255247578024864 0)
(0.199272572994232 -0.0170423481613398 0)
(0.199818059802055 -0.00852893386036158 0.0399999991059303)
(0.199818059802055 -0.00852893386036158 0)
(0.0962554290890694 -0.175313696265221 0)
(0.0850516706705093 -0.181014403700829 0)
(0.117479413747787 -0.161859765648842 0)
(0.107078939676285 -0.168920397758484 0)
(0.1368488073349 -0.145850628614426 0)
(0.127415791153908 -0.154159709811211 0)
(0.145741179585457 -0.136965364217758 0)
(0.161765798926353 -0.117608785629272 0)
(0.154057785868645 -0.12753900885582 0)
(0.180946335196495 -0.0851963683962822 0)
(0.17523667216301 -0.0963955670595169 0)
(0.16883473098278 -0.107213959097862 0)
(0.185941159725189 -0.0736605897545815 0)
(0.193710267543793 -0.0497627556324005 0)
(0.190201416611671 -0.0618338137865067 0)
(0.198421344161034 -0.0250793378800154 0)
(0.196453854441643 -0.0374951101839542 0)
(0.199604943394661 -0.0125644877552986 0)
(0.0850516706705093 -0.181014403700829 0.0399999991059303)
(0.0962554290890694 -0.175313696265221 0.0399999991059303)
(0.107078939676285 -0.168920397758484 0.0399999991059303)
(0.117479413747787 -0.161859765648842 0.0399999991059303)
(0.127415791153908 -0.154159709811211 0.0399999991059303)
(0.1368488073349 -0.145850628614426 0.0399999991059303)
(0.145741179585457 -0.136965364217758 0.0399999991059303)
(0.154057785868645 -0.12753900885582 0.0399999991059303)
(0.161765798926353 -0.117608785629272 0.0399999991059303)
(0.16883473098278 -0.107213959097862 0.0399999991059303)
(0.17523667216301 -0.0963955670595169 0.0399999991059303)
(0.180946335196495 -0.0851963683962822 0.0399999991059303)
(0.185941159725189 -0.0736605897545815 0.0399999991059303)
(0.190201416611671 -0.0618338137865067 0.0399999991059303)
(0.193710267543793 -0.0497627556324005 0.0399999991059303)
(0.196453854441643 -0.0374951101839542 0.0399999991059303)
(0.198421344161034 -0.0250793378800154 0.0399999991059303)
(0.199604943394661 -0.0125644877552986 0.0399999991059303)
(0.199607476592064 0.0125241596251726 0)
(0.199607476592064 0.0125241596251726 0.0399999991059303)
(0.198431462049484 0.0249991584569216 0.0399999991059303)
(0.198431462049484 0.0249991584569216 0)
(0.196476548910141 0.0373760312795639 0.0399999991059303)
(0.196476548910141 0.0373760312795639 0)
(0.19375042617321 0.0496061928570271 0.0399999991059303)
(0.19375042617321 0.0496061928570271 0)
(0.190263777971268 0.0616416409611702 0.0399999991059303)
(0.190263777971268 0.0616416409611702 0)
(0.186030313372612 0.0734351351857185 0.0399999991059303)
(0.181066647171974 0.0849403738975525 0.0399999991059303)
(0.186030313372612 0.0734351351857185 0)
(0.181066647171974 0.0849403738975525 0)
(0.175392255187035 0.0961122065782547 0.0399999991059303)
(0.175392255187035 0.0961122065782547 0)
(0.169029399752617 0.106906786561012 0.0399999991059303)
(0.169029399752617 0.106906786561012 0)
(0.162003085017204 0.117281720042229 0.0399999991059303)
(0.162003085017204 0.117281720042229 0)
(0.154340848326683 0.127196297049522 0.0399999991059303)
(0.154340848326683 0.127196297049522 0)
(0.146072819828987 0.136611610651016 0.0399999991059303)
(0.146072819828987 0.136611610651016 0)
(0.137231394648552 0.145490691065788 0.0399999991059303)
(0.127851322293282 0.153798684477806 0.0399999991059303)
(0.137231394648552 0.145490691065788 0)
(0.127851322293282 0.153798684477806 0)
(0.117969408631325 0.161503002047539 0)
(0.117969408631325 0.161503002047539 0.0399999991059303)
(0.107624433934689 0.16857336461544 0)
(0.107624433934689 0.16857336461544 0.0399999991059303)
(0.0968570113182068 0.17498205602169 0)
(0.0968570113182068 0.17498205602169 0.0399999991059303)
(0.0857094004750252 0.180703908205032 0)
(0.0857094004750252 0.180703908205032 0.0399999991059303)
(0.0742253661155701 0.185716435313225 0)
(0.0742253661155701 0.185716435313225 0.0399999991059303)
(-0.136758103966713 -0.14593568444252 0)
(-0.145641803741455 -0.137071028351784 0)
(-0.127335906028748 -0.154225692152977 0)
(-0.117412321269512 -0.161908447742462 0)
(-0.107026427984238 -0.16895367205143 0)
(-0.168723553419113 -0.107388831675053 0)
(-0.175126701593399 -0.0965952277183533 0)
(-0.161656051874161 -0.117759585380554 0)
(-0.153952032327652 -0.127666652202606 0)
(-0.0962191075086594 -0.175333634018898 0)
(-0.180840268731117 -0.0854212716221809 0)
(-0.185841783881187 -0.0739109739661217 0)
(-0.193632692098618 -0.0500637516379356 0)
(-0.196391418576241 -0.0378207303583622 0)
(-0.19011153280735 -0.0621096417307854 0)
(-0.19837686419487 -0.0254287905991077 0)
(-0.199581161141396 -0.0129367234185338 0)
(-0.199999615550041 -0.000393716880353168 0)
(-0.198475435376167 0.0246475525200367 0)
(-0.196538805961609 0.0370472148060799 0)
(-0.199630558490753 0.0121508408337831 0)
(-0.19382831454277 0.0493010021746159 0)
(-0.190354585647583 0.0613606609404087 0)
(-0.186131343245506 0.0731787085533142 0)
(-0.0850329101085663 -0.181023210287094 0)
(-0.18117518723011 0.0847086161375046 0)
(-0.175505667924881 0.0959049761295319 0)
(-0.146180346608162 0.136496558785439 0)
(-0.137331619858742 0.14539609849453 0)
(-0.154453471302986 0.127059534192085 0)
(-0.127942129969597 0.153723165392876 0)
(-0.118048876523972 0.161444917321205 0)
(-0.162118434906006 0.117122210562229 0)
(-0.169145047664642 0.106723710894585 0)
(-0.0969086736440659 0.174953445792198 0)
(-0.0857449695467949 0.1806870251894 0)
(-0.107690796256065 0.168530985713005 0)
(-0.0742436423897743 0.18570913374424 0)
(-0.199999615550041 -0.000393716880353168 0.0399999991059303)
(-0.199581161141396 -0.0129367234185338 0.0399999991059303)
(-0.19837686419487 -0.0254287905991077 0.0399999991059303)
(-0.196391418576241 -0.0378207303583622 0.0399999991059303)
(-0.193632692098618 -0.0500637516379356 0.0399999991059303)
(-0.19011153280735 -0.0621096417307854 0.0399999991059303)
(-0.185841783881187 -0.0739109739661217 0.0399999991059303)
(-0.180840268731117 -0.0854212716221809 0.0399999991059303)
(-0.175126701593399 -0.0965952277183533 0.0399999991059303)
(-0.168723553419113 -0.107388831675053 0.0399999991059303)
(-0.161656051874161 -0.117759585380554 0.0399999991059303)
(-0.153952032327652 -0.127666652202606 0.0399999991059303)
(-0.145641803741455 -0.137071028351784 0.0399999991059303)
(-0.136758103966713 -0.14593568444252 0.0399999991059303)
(-0.127335906028748 -0.154225692152977 0.0399999991059303)
(-0.117412321269512 -0.161908447742462 0.0399999991059303)
(-0.107026427984238 -0.16895367205143 0.0399999991059303)
(-0.0962191075086594 -0.175333634018898 0.0399999991059303)
(-0.0850329101085663 -0.181023210287094 0.0399999991059303)
(-0.18117518723011 0.0847086161375046 0.0399999991059303)
(-0.186131343245506 0.0731787085533142 0.0399999991059303)
(-0.190354585647583 0.0613606609404087 0.0399999991059303)
(-0.19382831454277 0.0493010021746159 0.0399999991059303)
(-0.196538805961609 0.0370472148060799 0.0399999991059303)
(-0.198475435376167 0.0246475525200367 0.0399999991059303)
(-0.199630558490753 0.0121508408337831 0.0399999991059303)
(-0.175505667924881 0.0959049761295319 0.0399999991059303)
(-0.169145047664642 0.106723710894585 0.0399999991059303)
(-0.162118434906006 0.117122210562229 0.0399999991059303)
(-0.154453471302986 0.127059534192085 0.0399999991059303)
(-0.146180346608162 0.136496558785439 0.0399999991059303)
(-0.137331619858742 0.14539609849453 0.0399999991059303)
(-0.127942129969597 0.153723165392876 0.0399999991059303)
(-0.118048876523972 0.161444917321205 0.0399999991059303)
(-0.107690796256065 0.168530985713005 0.0399999991059303)
(-0.0969086736440659 0.174953445792198 0.0399999991059303)
(-0.0857449695467949 0.1806870251894 0.0399999991059303)
(-0.0742436423897743 0.18570913374424 0.0399999991059303)
)


// edges:

245
(
(15 14)
(17 16)
(1 0)
(14 2)
(3 1)
(19 18)
(4 15)
(18 20)
(20 21)
(23 22)
(21 19)
(22 24)
(25 23)
(0 5)
(24 25)
(5 3)
(2 4)
(17 116)
(117 16)
(118 117)
(116 119)
(120 118)
(119 121)
(122 120)
(121 123)
(124 122)
(123 125)
(126 124)
(127 126)
(125 128)
(128 129)
(130 127)
(129 131)
(132 130)
(131 133)
(134 132)
(133 135)
(136 134)
(135 137)
(138 136)
(137 139)
(140 138)
(141 140)
(139 142)
(142 143)
(143 144)
(145 141)
(144 146)
(147 145)
(146 148)
(149 147)
(148 150)
(151 149)
(150 152)
(153 151)
(0 153)
(152 1)
(154 155)
(156 154)
(157 156)
(158 157)
(159 160)
(161 159)
(162 161)
(155 162)
(163 158)
(164 165)
(160 164)
(166 167)
(168 166)
(165 168)
(167 169)
(170 171)
(169 170)
(172 173)
(174 172)
(171 174)
(175 176)
(173 175)
(176 177)
(2 178)
(179 180)
(177 179)
(181 182)
(183 181)
(184 185)
(182 184)
(186 183)
(187 186)
(180 187)
(178 163)
(188 189)
(190 188)
(185 190)
(191 3)
(189 191)
(192 193)
(193 194)
(194 195)
(195 196)
(196 197)
(197 198)
(198 199)
(199 200)
(200 201)
(201 202)
(202 203)
(203 204)
(204 205)
(205 206)
(206 207)
(207 208)
(208 209)
(209 210)
(210 4)
(211 212)
(212 213)
(213 214)
(214 215)
(215 216)
(216 217)
(217 192)
(218 211)
(219 218)
(220 219)
(221 220)
(222 221)
(223 222)
(224 223)
(225 224)
(226 225)
(227 226)
(228 227)
(229 228)
(5 229)
(23 6)
(6 7)
(7 22)
(8 6)
(25 8)
(7 9)
(9 24)
(9 8)
(19 10)
(10 11)
(11 18)
(12 10)
(21 12)
(11 13)
(13 20)
(13 12)
(14 26)
(27 15)
(28 27)
(26 29)
(30 28)
(29 31)
(32 30)
(31 33)
(34 32)
(33 35)
(36 34)
(35 37)
(38 36)
(37 39)
(40 38)
(39 41)
(42 40)
(41 43)
(43 44)
(45 42)
(44 46)
(47 45)
(46 48)
(49 47)
(48 50)
(51 49)
(50 52)
(53 51)
(52 54)
(55 53)
(56 55)
(54 57)
(57 58)
(59 56)
(60 59)
(58 61)
(61 62)
(63 60)
(64 63)
(62 65)
(65 66)
(67 64)
(68 67)
(66 69)
(69 70)
(71 68)
(72 71)
(70 73)
(74 72)
(75 74)
(73 76)
(76 77)
(78 75)
(16 78)
(77 79)
(79 17)
(80 81)
(81 14)
(82 83)
(83 80)
(84 85)
(85 82)
(86 84)
(87 88)
(88 86)
(89 90)
(90 91)
(92 89)
(93 94)
(94 92)
(95 96)
(96 93)
(97 95)
(91 87)
(17 97)
(15 98)
(98 99)
(99 100)
(100 101)
(101 102)
(102 103)
(103 104)
(104 105)
(105 106)
(106 107)
(107 108)
(108 109)
(109 110)
(110 111)
(111 112)
(112 113)
(113 114)
(114 115)
(115 16)
)

// * * * * * * * * * * * * * * * * * * * * * * * * * * * * * * * * * * * * * //


// ************************************************************************* //
