/*--------------------------------*- C++ -*----------------------------------*\
| =========                 |                                                 |
| \\      /  F ield         | OpenFOAM: The Open Source CFD Toolbox           |
|  \\    /   O peration     | Version:  2406                                  |
|   \\  /    A nd           | Website:  www.openfoam.com                      |
|    \\/     M anipulation  |                                                 |
\*---------------------------------------------------------------------------*/
FoamFile
{
    version     2.0;
    format      ascii;
    arch        "LSB;label=32;scalar=64";
    class       featureEdgeMesh;
    location    "constant/triSurface";
    object      Cylinder.eMesh;
}
// * * * * * * * * * * * * * * * * * * * * * * * * * * * * * * * * * * * * * //


// points:

80
(
(8.40217 -1.64012 -0.246807)
(8.40217 1.64012 -0.246807)
(11.5978 1.64012 -0.246807)
(11.5978 -1.64012 -0.246807)
(-11.5978 -1.64012 -0.246807)
(-11.5978 1.64012 -0.246807)
(-8.40217 1.64012 -0.246807)
(-8.40217 -1.64012 -0.246807)
(-11.5978 -1.64012 5)
(-11.5978 1.64012 5)
(8.40217 1.64012 5)
(-8.40217 -1.64012 5)
(8.40217 -1.64012 5)
(-8.40217 1.64012 5)
(11.5978 -1.64012 5)
(11.5978 1.64012 5)
(0 20 5)
(3.90181 19.6157 5)
(3.90181 19.6157 -5)
(0 20 -5)
(7.65367 18.4776 5)
(7.65367 18.4776 -5)
(11.1114 16.6294 5)
(11.1114 16.6294 -5)
(14.1421 14.1421 5)
(14.1421 14.1421 -5)
(16.6294 11.1114 5)
(16.6294 11.1114 -5)
(18.4776 7.65367 5)
(18.4776 7.65367 -5)
(19.6157 3.90181 5)
(19.6157 3.90181 -5)
(20 0 5)
(20 0 -5)
(19.6157 -3.90181 5)
(19.6157 -3.90181 -5)
(18.4776 -7.65367 5)
(18.4776 -7.65367 -5)
(16.6294 -11.1114 5)
(16.6294 -11.1114 -5)
(14.1421 -14.1421 5)
(14.1421 -14.1421 -5)
(11.1114 -16.6294 5)
(11.1114 -16.6294 -5)
(7.65367 -18.4776 5)
(7.65367 -18.4776 -5)
(3.90181 -19.6157 5)
(3.90181 -19.6157 -5)
(0 -20 5)
(0 -20 -5)
(-3.90181 -19.6157 5)
(-3.90181 -19.6157 -5)
(-7.65367 -18.4776 5)
(-7.65367 -18.4776 -5)
(-11.1114 -16.6294 5)
(-11.1114 -16.6294 -5)
(-14.1421 -14.1421 5)
(-14.1421 -14.1421 -5)
(-16.6294 -11.1114 5)
(-16.6294 -11.1114 -5)
(-18.4776 -7.65367 5)
(-18.4776 -7.65367 -5)
(-19.6157 -3.90181 5)
(-19.6157 -3.90181 -5)
(-20 0 5)
(-20 0 -5)
(-19.6157 3.90181 5)
(-19.6157 3.90181 -5)
(-18.4776 7.65367 5)
(-18.4776 7.65367 -5)
(-16.6294 11.1114 5)
(-16.6294 11.1114 -5)
(-14.1421 14.1421 5)
(-14.1421 14.1421 -5)
(-11.1114 16.6294 5)
(-11.1114 16.6294 -5)
(-7.65367 18.4776 5)
(-7.65367 18.4776 -5)
(-3.90181 19.6157 5)
(-3.90181 19.6157 -5)
)


// edges:

88
(
(16 17)
(18 19)
(17 20)
(21 18)
(20 22)
(23 21)
(22 24)
(25 23)
(24 26)
(27 25)
(26 28)
(29 27)
(28 30)
(31 29)
(30 32)
(33 31)
(32 34)
(35 33)
(34 36)
(37 35)
(36 38)
(39 37)
(38 40)
(41 39)
(40 42)
(43 41)
(42 44)
(45 43)
(44 46)
(47 45)
(46 48)
(49 47)
(48 50)
(51 49)
(50 52)
(53 51)
(52 54)
(55 53)
(54 56)
(57 55)
(56 58)
(59 57)
(58 60)
(61 59)
(60 62)
(63 61)
(62 64)
(65 63)
(64 66)
(67 65)
(66 68)
(69 67)
(68 70)
(71 69)
(70 72)
(73 71)
(72 74)
(75 73)
(74 76)
(77 75)
(8 9)
(78 76)
(16 78)
(12 10)
(13 11)
(9 13)
(14 12)
(11 8)
(10 15)
(15 14)
(79 77)
(19 79)
(12 0)
(0 1)
(1 10)
(1 2)
(2 15)
(3 14)
(2 3)
(3 0)
(8 4)
(4 5)
(5 9)
(5 6)
(6 13)
(7 11)
(6 7)
(7 4)
)

// * * * * * * * * * * * * * * * * * * * * * * * * * * * * * * * * * * * * * //


// ************************************************************************* //
